@<TRIPOS>MOLECULE
8XW
   39    39     1     0     0
SMALL
bcc


@<TRIPOS>ATOM
      1 CAA          6.2770     2.0790     0.5540 c3         1 8XW      -0.187100
      2 CAB          4.8740     1.9750     0.0070 c          1 8XW       0.489700
      3 OAC          4.2570     2.9500    -0.3630 o          1 8XW      -0.613100
      4 SAD          4.2940     0.3150    -0.0170 ss         1 8XW      -0.109700
      5 CAE          2.6150     0.5070    -0.6920 c3         1 8XW       0.059700
      6 CAF          1.5670    -0.2700     0.0990 c3         1 8XW      -0.207900
      7 PAQ          1.8340    -2.1070    -0.1450 p5         1 8XW       1.133700
      8 OAS          3.3610    -2.2610    -0.0270 o          1 8XW      -0.910833
      9 OAT          1.0660    -2.8240     0.9730 o          1 8XW      -0.910833
     10 OAR          1.3030    -2.3980    -1.5550 o          1 8XW      -0.910833
     11 CAG          0.1800     0.2080    -0.3360 c3         1 8XW      -0.011400
     12 CAH         -0.9810    -0.3740     0.4610 c3         1 8XW      -0.079400
     13 CAI         -2.3260     0.2010     0.0380 c3         1 8XW      -0.065400
     14 CAJ         -3.4960    -0.4140     0.8090 c3         1 8XW      -0.046100
     15 CAK         -4.8210     0.1640     0.4000 ca         1 8XW      -0.043300
     16 CAL         -5.5530    -0.3940    -0.6460 ca         1 8XW      -0.129500
     17 CAM         -6.7590     0.1630    -1.0520 ca         1 8XW      -0.138000
     18 CAN         -7.2550     1.2940    -0.4150 ca         1 8XW      -0.158000
     19 CAO         -6.5340     1.8610     0.6290 ca         1 8XW      -0.138000
     20 CAP         -5.3290     1.2990     1.0290 ca         1 8XW      -0.129500
     21 HAB          6.9240     2.5280    -0.2000 hc         1 8XW       0.035367
     22 HAC          6.2770     2.7390     1.4230 hc         1 8XW       0.035367
     23 HAA          6.6980     1.1190     0.8460 hc         1 8XW       0.035367
     24 HAG          1.6960    -0.0240     1.1610 hc         1 8XW       0.030700
     25 HAH          0.1310     1.3040    -0.2660 hc         1 8XW       0.001700
     26 HAI          0.0430    -0.0340    -1.3950 hc         1 8XW       0.001700
     27 HAJ         -0.9890    -1.4590     0.3550 hc         1 8XW       0.063700
     28 HAK         -0.8260    -0.1790     1.5280 hc         1 8XW       0.063700
     29 HAL         -2.3310     1.2870     0.1840 hc         1 8XW       0.022700
     30 HAM         -2.4750     0.0380    -1.0340 hc         1 8XW       0.022700
     31 HAN         -3.4970    -1.4960     0.6500 hc         1 8XW       0.052200
     32 HAO         -3.3410    -0.2570     1.8810 hc         1 8XW       0.052200
     33 HAP         -5.1780    -1.2790    -1.1490 ha         1 8XW       0.134500
     34 HAQ         -7.3150    -0.2890    -1.8630 ha         1 8XW       0.112500
     35 HAR         -8.1960     1.7270    -0.7260 ha         1 8XW       0.108000
     36 HAS         -6.9120     2.7400     1.1350 ha         1 8XW       0.112500
     37 HAT         -4.7720     1.7460     1.8450 ha         1 8XW       0.134500
     38 HAE          2.4080     1.5790    -0.6900 h1         1 8XW       0.044200
     39 HAF          2.6290     0.1770    -1.7330 h1         1 8XW       0.044200
@<TRIPOS>BOND
     1     1     2 1   
     2     1    21 1   
     3     1    22 1   
     4     1    23 1   
     5     2     3 2   
     6     2     4 1   
     7     4     5 1   
     8     5     6 1   
     9     5    38 1   
    10     5    39 1   
    11     6     7 1   
    12     6    11 1   
    13     6    24 1   
    14     7     8 1   
    15     7     9 1   
    16     7    10 1   
    17    11    12 1   
    18    11    25 1   
    19    11    26 1   
    20    12    13 1   
    21    12    27 1   
    22    12    28 1   
    23    13    14 1   
    24    13    29 1   
    25    13    30 1   
    26    14    15 1   
    27    14    31 1   
    28    14    32 1   
    29    15    16 ar  
    30    15    20 ar  
    31    16    17 ar  
    32    16    33 1   
    33    17    18 ar  
    34    17    34 1   
    35    18    19 ar  
    36    18    35 1   
    37    19    20 ar  
    38    19    36 1   
    39    20    37 1   
@<TRIPOS>SUBSTRUCTURE
     1 8XW         1 TEMP              0 ****  ****    0 ROOT
