@<TRIPOS>MOLECULE
8XW
   39    39     1     0     0
SMALL
No Charge or Current Charge


@<TRIPOS>ATOM
      1 CAA          6.5000     2.2410     0.4120 c3         1 8XW      -0.187100
      2 CAB          5.1840     1.8790    -0.2750 c          1 8XW       0.489700
      3 OAC          4.8900     2.2900    -1.3910 o          1 8XW      -0.613100
      4 SAD          4.1150     0.8070     0.7310 ss         1 8XW      -0.157600
      5 CAE          2.6770     0.6100    -0.4130 c3         1 8XW       0.107600
      6 CAF          1.5630    -0.2750     0.2020 c3         1 8XW      -0.365700
      7 PAQ          1.8890    -2.0680    -0.1510 p5         1 8XW       1.291500
      8 OAS          3.3510    -2.3450    -0.0760 o          1 8XW      -0.910833
      9 OAT          1.1790    -2.8930     0.8690 o          1 8XW      -0.910833
     10 OAR          1.3870    -2.3920    -1.5170 o          1 8XW      -0.910833
     11 CAG          0.1600     0.2210    -0.2540 c3         1 8XW      -0.011400
     12 CAH         -1.0430    -0.4560     0.4460 c3         1 8XW      -0.079400
     13 CAI         -2.3990     0.1750     0.0570 c3         1 8XW      -0.065400
     14 CAJ         -3.6030    -0.4980     0.7500 c3         1 8XW      -0.046100
     15 CAK         -4.9260     0.1460     0.3540 ca         1 8XW      -0.043300
     16 CAL         -5.6450    -0.3330    -0.7590 ca         1 8XW      -0.111500
     17 CAM         -6.8640     0.2630    -1.1260 ca         1 8XW      -0.120000
     18 CAN         -7.3710     1.3420    -0.3830 ca         1 8XW      -0.140000
     19 CAO         -6.6580     1.8260     0.7270 ca         1 8XW      -0.120000
     20 CAP         -5.4390     1.2300     1.0940 ca         1 8XW      -0.111500
     21 HAB          7.1360     2.8930    -0.1980 hc         1 8XW       0.035367
     22 HAC          6.2810     2.6880     1.3880 hc         1 8XW       0.035367
     23 HAA          7.0200     1.3190     0.6950 hc         1 8XW       0.035367
     24 HAG          1.6070    -0.1710     1.2910 hc         1 8XW       0.030700
     25 HAH          0.0950     1.2990    -0.0570 hc         1 8XW       0.001700
     26 HAI          0.0630     0.1010    -1.3400 hc         1 8XW       0.001700
     27 HAJ         -1.0660    -1.5210     0.1880 hc         1 8XW       0.063700
     28 HAK         -0.9120    -0.3890     1.5330 hc         1 8XW       0.063700
     29 HAL         -2.3880     1.2410     0.3160 hc         1 8XW       0.022700
     30 HAM         -2.5290     0.1100    -1.0300 hc         1 8XW       0.022700
     31 HAN         -3.6140    -1.5650     0.4970 hc         1 8XW       0.052200
     32 HAO         -3.4700    -0.4430     1.8380 hc         1 8XW       0.052200
     33 HAP         -5.2570    -1.1660    -1.3400 ha         1 8XW       0.116500
     34 HAQ         -7.4140    -0.1110    -1.9860 ha         1 8XW       0.094500
     35 HAR         -8.3140     1.8040    -0.6670 ha         1 8XW       0.090000
     36 HAS         -7.0490     2.6620     1.3020 ha         1 8XW       0.094500
     37 HAT         -4.8910     1.6110     1.9530 ha         1 8XW       0.116500
     38 HAE          2.2870     1.6170    -0.6070 h1         1 8XW       0.044200
     39 HAF          3.0150     0.1920    -1.3700 h1         1 8XW       0.044200
@<TRIPOS>BOND
     1     1     2 1   
     2     1    21 1   
     3     1    22 1   
     4     1    23 1   
     5     2     3 2   
     6     2     4 1   
     7     4     5 1   
     8     5     6 1   
     9     5    38 1   
    10     5    39 1   
    11     6     7 1   
    12     6    11 1   
    13     6    24 1   
    14     7     8 1   
    15     7     9 1   
    16     7    10 1   
    17    11    12 1   
    18    11    25 1   
    19    11    26 1   
    20    12    13 1   
    21    12    27 1   
    22    12    28 1   
    23    13    14 1   
    24    13    29 1   
    25    13    30 1   
    26    14    15 1   
    27    14    31 1   
    28    14    32 1   
    29    15    16 ar  
    30    15    20 ar  
    31    16    17 ar  
    32    16    33 1   
    33    17    18 ar  
    34    17    34 1   
    35    18    19 ar  
    36    18    35 1   
    37    19    20 ar  
    38    19    36 1   
    39    20    37 1   
@<TRIPOS>SUBSTRUCTURE
     1 8XW         1 TEMP              0 ****  ****    0 ROOT
