@<TRIPOS>MOLECULE
8XX
   52    55     1     0     0
SMALL
bcc


@<TRIPOS>ATOM
      1 C10          6.0290    -0.1310     1.1860 ca         1 8XX      -0.124000
      2 C13         -0.0450    -1.4800     1.0040 ca         1 8XX      -0.079000
      3 C15         -2.3840    -1.0320     0.6490 ca         1 8XX       0.060600
      4 C20         -2.6490     3.1710     0.5090 cx         1 8XX      -0.118400
      5 C21         -4.1370     0.0790    -1.1090 c6         1 8XX       0.120500
      6 C22         -5.2410     0.8400    -1.8170 c3         1 8XX      -0.075100
      7 C02          1.7100     0.1450     0.2070 c          1 8XX       0.690700
      8 C04          2.3710    -2.0430    -0.8010 c3         1 8XX       0.102300
      9 C05          4.0130    -0.3700    -0.1020 ca         1 8XX       0.038600
     10 C06          4.6930     0.0740    -1.2280 ca         1 8XX      -0.116500
     11 C07          6.0370     0.4080    -1.1420 ca         1 8XX      -0.124000
     12 C08          6.7260     0.3150     0.0650 ca         1 8XX      -0.071300
     13 C09          8.1720     0.7040     0.1620 c3         1 8XX      -0.047800
     14 C11          4.6870    -0.4730     1.1070 ca         1 8XX      -0.116500
     15 C12          0.2970    -0.3210     0.3180 ca         1 8XX      -0.165600
     16 C14         -1.3730    -1.8360     1.1720 ca         1 8XX      -0.173000
     17 C16         -2.0450     0.1370    -0.0450 ca         1 8XX       0.047600
     18 C18         -3.5180     1.9680     0.3300 cx         1 8XX       0.106500
     19 C19         -3.9510     3.2900    -0.2170 cx         1 8XX      -0.118400
     20 C23         -4.6840    -0.8460    -0.0280 c          1 8XX       0.675500
     21 C27         -0.7150     0.4850    -0.1940 ca         1 8XX      -0.039000
     22 N03          2.6440    -0.7510    -0.1900 n          1 8XX      -0.407000
     23 N17         -3.0820     0.9390    -0.5810 nh         1 8XX      -0.582000
     24 N24         -3.7360    -1.3430     0.8240 n          1 8XX      -0.382000
     25 O01          1.9980     1.3000     0.4870 o          1 8XX      -0.577100
     26 O26         -5.8600    -1.1390     0.0660 o          1 8XX      -0.604500
     27 H101         6.5430    -0.2210     2.1360 ha         1 8XX       0.131000
     28 H131         0.7200    -2.1180     1.4270 ha         1 8XX       0.138000
     29 H202        -2.5630     3.5840     1.5060 hc         1 8XX       0.077950
     30 H201        -1.7440     3.2350    -0.0810 hc         1 8XX       0.077950
     31 H211        -3.6540    -0.5710    -1.8500 h1         1 8XX       0.081700
     32 H222        -5.8420     1.4400    -1.1370 hc         1 8XX       0.051033
     33 H223        -4.8070     1.4990    -2.5670 hc         1 8XX       0.051033
     34 H221        -5.9030     0.1440    -2.3280 hc         1 8XX       0.051033
     35 H043         2.5060    -2.8640    -0.0940 h1         1 8XX       0.041367
     36 H041         1.3600    -2.0820    -1.1960 h1         1 8XX       0.041367
     37 H042         3.0580    -2.1950    -1.6320 h1         1 8XX       0.041367
     38 H061         4.1740     0.1560    -2.1750 ha         1 8XX       0.136500
     39 H071         6.5550     0.7480    -2.0310 ha         1 8XX       0.131000
     40 H093         8.2760     1.7660     0.3950 hc         1 8XX       0.043033
     41 H092         8.6820     0.1500     0.9500 hc         1 8XX       0.043033
     42 H091         8.7000     0.5250    -0.7740 hc         1 8XX       0.043033
     43 H111         4.1640    -0.8290     1.9860 ha         1 8XX       0.136500
     44 H141        -1.6080    -2.7410     1.7140 ha         1 8XX       0.141000
     45 H181        -4.0350     1.6300     1.2290 h1         1 8XX       0.069700
     46 H191        -4.7790     3.7900     0.2670 hc         1 8XX       0.077950
     47 H192        -3.9070     3.4250    -1.2900 hc         1 8XX       0.077950
     48 H252        -3.5950    -2.0730     2.7770 h1         1 8XX       0.050700
     49 H253        -5.1850    -2.2240     2.0290 h1         1 8XX       0.050700
     50 H251        -3.8860    -3.3210     1.5520 h1         1 8XX       0.050700
     51 H271        -0.4700     1.3910    -0.7330 ha         1 8XX       0.160000
     52 C25         -4.1190    -2.2970     1.8500 c3         1 8XX       0.079300
@<TRIPOS>BOND
     1     1    12 ar  
     2     1    14 ar  
     3     1    27 1   
     4     2    15 ar  
     5     2    16 ar  
     6     2    28 1   
     7     3    16 ar  
     8     3    17 ar  
     9     3    24 1   
    10     4    18 1   
    11     4    19 1   
    12     4    29 1   
    13     4    30 1   
    14     5     6 1   
    15     5    20 1   
    16     5    23 1   
    17     5    31 1   
    18     6    32 1   
    19     6    33 1   
    20     6    34 1   
    21     7    15 1   
    22     7    22 1   
    23     7    25 2   
    24     8    22 1   
    25     8    35 1   
    26     8    36 1   
    27     8    37 1   
    28     9    10 ar  
    29     9    14 ar  
    30     9    22 1   
    31    10    11 ar  
    32    10    38 1   
    33    11    12 ar  
    34    11    39 1   
    35    12    13 1   
    36    13    40 1   
    37    13    41 1   
    38    13    42 1   
    39    14    43 1   
    40    15    21 ar  
    41    16    44 1   
    42    17    21 ar  
    43    17    23 1   
    44    18    19 1   
    45    18    23 1   
    46    18    45 1   
    47    19    46 1   
    48    19    47 1   
    49    20    24 1   
    50    20    26 2   
    51    21    51 1   
    52    24    52 1   
    53    48    52 1   
    54    49    52 1   
    55    50    52 1   
@<TRIPOS>SUBSTRUCTURE
     1 8XX         1 TEMP              0 ****  ****    0 ROOT
