@<TRIPOS>MOLECULE
8XX
   52    55     1     0     0
SMALL
No Charge or Current Charge


@<TRIPOS>ATOM
      1 C10          5.6950     0.5850     1.2570 ca         1 8XX      -0.106000
      2 C13          0.0650    -1.5450     0.6150 ca         1 8XX      -0.061000
      3 C15         -2.3480    -1.1320     0.7110 ca         1 8XX      -0.032000
      4 C20         -2.4830     3.3630     0.5040 cx         1 8XX      -0.118400
      5 C21         -4.4000     0.1100    -0.7810 c6         1 8XX       0.120500
      6 C22         -5.6450     0.9530    -1.1940 c3         1 8XX      -0.075100
      7 C02          1.6640     0.2040    -0.3520 c          1 8XX       0.623700
      8 C04          2.3950    -1.8850    -1.4850 c3         1 8XX       0.102300
      9 C05          4.0710    -0.5070    -0.2200 ca         1 8XX      -0.054000
     10 C06          5.1170    -0.7470    -1.1410 ca         1 8XX      -0.098500
     11 C07          6.4400    -0.3800    -0.8380 ca         1 8XX      -0.106000
     12 C08          6.7390     0.2760     0.3680 ca         1 8XX      -0.071300
     13 C09          8.1690     0.6790     0.6910 c3         1 8XX      -0.047800
     14 C11          4.3720     0.2180     0.9530 ca         1 8XX      -0.098500
     15 C12          0.2780    -0.2920     0.0050 ca         1 8XX      -0.165600
     16 C14         -1.2350    -1.9750     0.9240 ca         1 8XX      -0.155000
     17 C16         -2.1450     0.1280     0.0800 ca         1 8XX       0.186000
     18 C18         -3.4990     2.2450     0.4270 cx         1 8XX       0.106500
     19 C19         -3.6930     3.5020    -0.3850 cx         1 8XX      -0.118400
     20 C23         -4.7850    -1.0620     0.1780 c          1 8XX       0.533000
     21 C27         -0.8370     0.5300    -0.2580 ca         1 8XX      -0.021000
     22 N03          2.6910    -0.7490    -0.5770 n          1 8XX      -0.247400
     23 N17         -3.2680     0.9400    -0.2450 nh         1 8XX      -0.720400
     24 N24         -3.6950    -1.6460     0.8690 n          1 8XX      -0.222400
     25 O01          1.9080     1.4070    -0.3350 o          1 8XX      -0.577100
     26 O26         -5.9440    -1.4420     0.3320 o          1 8XX      -0.529000
     27 H101         5.9050     1.1190     2.1810 ha         1 8XX       0.113000
     28 H131         0.9020    -2.2020     0.8420 ha         1 8XX       0.120000
     29 H202        -2.4580     3.9510     1.4170 hc         1 8XX       0.077950
     30 H201        -1.5250     3.2740     0.0060 hc         1 8XX       0.077950
     31 H211        -4.0490    -0.3900    -1.6960 h1         1 8XX       0.081700
     32 H222        -6.1090     1.4420    -0.3290 hc         1 8XX       0.051033
     33 H223        -5.3760     1.7270    -1.9210 hc         1 8XX       0.051033
     34 H221        -6.4080     0.3220    -1.6660 hc         1 8XX       0.051033
     35 H043         2.8800    -2.7940    -1.1070 h1         1 8XX       0.041367
     36 H041         1.3180    -2.0690    -1.5720 h1         1 8XX       0.041367
     37 H042         2.7760    -1.6640    -2.4890 h1         1 8XX       0.041367
     38 H061         4.9210    -1.2240    -2.0970 ha         1 8XX       0.118500
     39 H071         7.2320    -0.5960    -1.5510 ha         1 8XX       0.113000
     40 H093         8.3890     1.6810     0.3050 hc         1 8XX       0.043033
     41 H092         8.3470     0.6900     1.7740 hc         1 8XX       0.043033
     42 H091         8.8910    -0.0170     0.2480 hc         1 8XX       0.043033
     43 H111         3.5810     0.4820     1.6510 ha         1 8XX       0.118500
     44 H141        -1.3630    -2.9720     1.3360 ha         1 8XX       0.123000
     45 H181        -4.1370     2.1460     1.3080 h1         1 8XX       0.069700
     46 H191        -4.4800     4.1850    -0.0740 hc         1 8XX       0.077950
     47 H192        -3.5370     3.4430    -1.4590 hc         1 8XX       0.077950
     48 H252        -3.2310    -2.6850     2.6640 h1         1 8XX       0.050700
     49 H253        -4.9620    -2.6260     2.2820 h1         1 8XX       0.050700
     50 H251        -3.8850    -3.7020     1.3440 h1         1 8XX       0.050700
     51 H271        -0.6900     1.4690    -0.7780 ha         1 8XX       0.142000
     52 C25         -3.9600    -2.7290     1.8450 c3         1 8XX       0.079300
@<TRIPOS>BOND
     1     1    12 ar  
     2     1    14 ar  
     3     1    27 1   
     4     2    15 ar  
     5     2    16 ar  
     6     2    28 1   
     7     3    16 ar  
     8     3    17 ar  
     9     3    24 1   
    10     4    18 1   
    11     4    19 1   
    12     4    29 1   
    13     4    30 1   
    14     5     6 1   
    15     5    20 1   
    16     5    23 1   
    17     5    31 1   
    18     6    32 1   
    19     6    33 1   
    20     6    34 1   
    21     7    15 1   
    22     7    22 1   
    23     7    25 2   
    24     8    22 1   
    25     8    35 1   
    26     8    36 1   
    27     8    37 1   
    28     9    10 ar  
    29     9    14 ar  
    30     9    22 1   
    31    10    11 ar  
    32    10    38 1   
    33    11    12 ar  
    34    11    39 1   
    35    12    13 1   
    36    13    40 1   
    37    13    41 1   
    38    13    42 1   
    39    14    43 1   
    40    15    21 ar  
    41    16    44 1   
    42    17    21 ar  
    43    17    23 1   
    44    18    19 1   
    45    18    23 1   
    46    18    45 1   
    47    19    46 1   
    48    19    47 1   
    49    20    24 1   
    50    20    26 2   
    51    21    51 1   
    52    24    52 1   
    53    48    52 1   
    54    49    52 1   
    55    50    52 1   
@<TRIPOS>SUBSTRUCTURE
     1 8XX         1 TEMP              0 ****  ****    0 ROOT
