@<TRIPOS>MOLECULE
8XY
   33    36     1     0     0
SMALL
bcc


@<TRIPOS>ATOM
      1 C4          -3.1440    -1.6940    -0.9460 ca         1 8XY      -0.077000
      2 C5          -1.9170    -1.2410    -0.4470 ca         1 8XY      -0.081800
      3 C6          -0.6170    -1.8090    -0.6010 cc         1 8XY      -0.049200
      4 C7           0.3480    -1.0850     0.0160 cd         1 8XY      -0.135600
      5 C10         -3.0440     0.6590     0.6110 ca         1 8XY      -0.075000
      6 C15          4.7230    -1.5990     0.8580 ca         1 8XY      -0.163000
      7 C17          6.8720    -0.5080     0.5050 ca         1 8XY      -0.163000
      8 C21          5.5610     2.5720    -0.8070 cc         1 8XY      -0.111100
      9 C22          4.3950     1.8950    -0.5910 cd         1 8XY      -0.196200
     10 C2          -4.2320     0.1780     0.1000 ca         1 8XY      -0.003900
     11 C3          -4.2950    -0.9890    -0.6750 ca         1 8XY      -0.113000
     12 S8          -0.2860     0.3120     0.8430 ss         1 8XY      -0.052500
     13 C9          -1.8910    -0.0660     0.3230 ca         1 8XY      -0.027100
     14 C11          1.7860    -1.4380     0.0040 c          1 8XY       0.708300
     15 O12          2.1440    -2.5630    -0.2890 o          1 8XY      -0.567100
     16 N13          2.6320    -0.4270     0.3250 ns         1 8XY      -0.469100
     17 C14          4.0330    -0.5000     0.3770 ca         1 8XY       0.106600
     18 C16          6.1250    -1.5950     0.9110 ca         1 8XY      -0.090000
     19 C18          6.1690     0.5990     0.0320 ca         1 8XY      -0.031200
     20 N19          6.6200     1.7980    -0.4360 na         1 8XY      -0.170400
     21 C23          4.7610     0.6240    -0.0500 ca         1 8XY      -0.133800
     22 H1          -3.1890    -2.5950    -1.5430 ha         1 8XY       0.144000
     23 H2          -0.4180    -2.7120    -1.1610 ha         1 8XY       0.176000
     24 H3          -3.0020     1.5610     1.2070 ha         1 8XY       0.157000
     25 H4           4.1910    -2.4680     1.2140 ha         1 8XY       0.152000
     26 H5           7.9530    -0.5150     0.5530 ha         1 8XY       0.134000
     27 H6           5.7180     3.5600    -1.2090 h4         1 8XY       0.162000
     28 H7           3.4060     2.2700    -0.8010 ha         1 8XY       0.151000
     29 H8          -5.2430    -1.3390    -1.0610 ha         1 8XY       0.151000
     30 H9           2.2530     0.5080     0.3660 hn         1 8XY       0.324500
     31 H10          6.6290    -2.4730     1.2930 ha         1 8XY       0.132000
     32 H11          7.5860     2.0730    -0.5040 hn         1 8XY       0.299700
     33 BR1         -5.8260     1.1220     0.4490 br         1 8XY      -0.089100
@<TRIPOS>BOND
     1     1     2 ar  
     2     1    11 ar  
     3     1    22 1   
     4     2     3 1   
     5     2    13 ar  
     6     3     4 2   
     7     3    23 1   
     8     4    12 1   
     9     4    14 1   
    10     5    10 ar  
    11     5    13 ar  
    12     5    24 1   
    13     6    17 ar  
    14     6    18 ar  
    15     6    25 1   
    16     7    18 ar  
    17     7    19 ar  
    18     7    26 1   
    19     8     9 2   
    20     8    20 1   
    21     8    27 1   
    22     9    21 1   
    23     9    28 1   
    24    10    11 ar  
    25    10    33 1   
    26    11    29 1   
    27    12    13 1   
    28    14    15 2   
    29    14    16 1   
    30    16    17 1   
    31    16    30 1   
    32    17    21 ar  
    33    18    31 1   
    34    19    20 1   
    35    19    21 ar  
    36    20    32 1   
@<TRIPOS>SUBSTRUCTURE
     1 8XY         1 TEMP              0 ****  ****    0 ROOT
