@<TRIPOS>MOLECULE
8XY
   33    36     1     0     0
SMALL
No Charge or Current Charge


@<TRIPOS>ATOM
      1 C4          -3.2710    -1.8560    -0.2310 ca         1 8XY      -0.059000
      2 C5          -1.9830    -1.2990    -0.1830 ca         1 8XY      -0.081800
      3 C6          -0.7400    -2.0320    -0.1120 cc         1 8XY      -0.099200
      4 C7           0.3560    -1.1800    -0.0790 cd         1 8XY      -0.135600
      5 C10         -2.8920     0.9490    -0.2680 ca         1 8XY      -0.057000
      6 C15          4.9110    -1.8080     0.1420 ca         1 8XY      -0.145000
      7 C17          6.9550    -0.4470     0.2090 ca         1 8XY      -0.145000
      8 C21          5.3620     2.8460     0.0720 cc         1 8XY      -0.161100
      9 C22          4.3010     1.9510     0.0410 cd         1 8XY      -0.246200
     10 C2          -4.1920     0.4070    -0.3170 ca         1 8XY      -0.003900
     11 C3          -4.3820    -0.9910    -0.2980 ca         1 8XY      -0.095000
     12 S8          -0.0930     0.5550    -0.1330 ss         1 8XY       0.074400
     13 C9          -1.8000     0.0710    -0.2010 ca         1 8XY      -0.154000
     14 C11          1.7570    -1.6750    -0.0050 c          1 8XY       0.641300
     15 O12          2.0400    -2.8680     0.0310 o          1 8XY      -0.567100
     16 N13          2.6870    -0.6460     0.0180 ns         1 8XY      -0.143000
     17 C14          4.1050    -0.6420     0.0820 ca         1 8XY       0.014000
     18 C16          6.3230    -1.7090     0.2050 ca         1 8XY      -0.072000
     19 C18          6.1400     0.6880     0.1500 ca         1 8XY      -0.031200
     20 N19          6.5080     2.0250     0.1400 na         1 8XY      -0.220700
     21 C23          4.7790     0.5900     0.0890 ca         1 8XY      -0.133800
     22 H1          -3.4110    -2.9340    -0.2160 ha         1 8XY       0.126000
     23 H2          -0.6610    -3.1170    -0.0870 ha         1 8XY       0.226000
     24 H3          -2.7400     2.0260    -0.2820 ha         1 8XY       0.139000
     25 H4           4.4680    -2.7990     0.1410 ha         1 8XY       0.134000
     26 H5           8.0380    -0.3630     0.2570 ha         1 8XY       0.116000
     27 H6           5.3960     3.9330     0.0520 h4         1 8XY       0.212000
     28 H7           3.2570     2.2500    -0.0130 ha         1 8XY       0.201000
     29 H8          -5.3880    -1.4040    -0.3360 ha         1 8XY       0.133000
     30 H9           2.2810     0.2790    -0.0190 hn         1 8XY       0.158000
     31 H10          6.9260    -2.6130     0.2500 ha         1 8XY       0.114000
     32 H11          7.4670     2.3590     0.1780 hn         1 8XY       0.350000
     33 Br1         -5.7050     1.5720    -0.4090 br         1 8XY      -0.089100
@<TRIPOS>BOND
     1     1     2 ar  
     2     1    11 ar  
     3     1    22 1   
     4     2     3 1   
     5     2    13 ar  
     6     3     4 2   
     7     3    23 1   
     8     4    12 1   
     9     4    14 1   
    10     5    10 ar  
    11     5    13 ar  
    12     5    24 1   
    13     6    17 ar  
    14     6    18 ar  
    15     6    25 1   
    16     7    18 ar  
    17     7    19 ar  
    18     7    26 1   
    19     8     9 2   
    20     8    20 1   
    21     8    27 1   
    22     9    21 1   
    23     9    28 1   
    24    10    11 ar  
    25    10    33 1   
    26    11    29 1   
    27    12    13 1   
    28    14    15 2   
    29    14    16 1   
    30    16    17 1   
    31    16    30 1   
    32    17    21 ar  
    33    18    31 1   
    34    19    20 1   
    35    19    21 ar  
    36    20    32 1   
@<TRIPOS>SUBSTRUCTURE
     1 8XY         1 TEMP              0 ****  ****    0 ROOT
