@<TRIPOS>MOLECULE
8XZ
   36    36     1     0     0
SMALL
No Charge or Current Charge


@<TRIPOS>ATOM
      1 CAA          6.3130    -1.3450    -0.8380 c3         1 8XZ      -0.187100
      2 CAB          5.0620    -1.2110     0.0290 c          1 8XZ       0.490700
      3 OAC          5.0350    -1.5630     1.2030 o          1 8XZ      -0.613100
      4 SAD          3.6420    -0.5020    -0.8560 ss         1 8XZ      -0.157600
      5 CAE          2.3770    -0.5090     0.4930 c3         1 8XZ       0.107600
      6 CAF          1.0130     0.0470     0.0120 c3         1 8XZ      -0.364700
      7 PAP          0.9650     1.8950     0.1880 p5         1 8XZ       1.290500
      8 OAQ          0.6030     2.2380     1.5930 o          1 8XZ      -0.910500
      9 OAR          2.2990     2.4730    -0.1400 o          1 8XZ      -0.910500
     10 OAS         -0.0540     2.4380    -0.7560 o          1 8XZ      -0.910500
     11 CAG         -0.1570    -0.6920     0.7220 c3         1 8XZ      -0.011400
     12 CAH         -1.5710    -0.3650     0.1860 c3         1 8XZ      -0.073400
     13 CAI         -2.6760    -1.2290     0.8330 c3         1 8XZ      -0.042100
     14 CAJ         -4.0590    -0.8970     0.2890 ca         1 8XZ      -0.033300
     15 CAK         -4.5440    -1.5450    -0.8640 ca         1 8XZ      -0.105500
     16 CAL         -5.8200    -1.2380    -1.3670 ca         1 8XZ      -0.119500
     17 CAM         -6.6180    -0.2790    -0.7220 ca         1 8XZ      -0.141000
     18 CAN         -6.1400     0.3730     0.4270 ca         1 8XZ      -0.119500
     19 CAO         -4.8640     0.0650     0.9310 ca         1 8XZ      -0.105500
     20 HAB          6.0650    -1.9240    -1.7350 hc         1 8XZ       0.035367
     21 HAC          6.5600    -0.3640    -1.2600 hc         1 8XZ       0.035367
     22 HAA          7.1630    -1.7800    -0.2990 hc         1 8XZ       0.035367
     23 HAH         -0.0010    -1.7720     0.6080 hc         1 8XZ      -0.000800
     24 HAI         -0.1210    -0.4880     1.7990 hc         1 8XZ      -0.000800
     25 HAJ         -1.8030     0.6890     0.3720 hc         1 8XZ       0.070200
     26 HAK         -1.5910    -0.5130    -0.9000 hc         1 8XZ       0.070200
     27 HAL         -2.4520    -2.2890     0.6600 hc         1 8XZ       0.029700
     28 HAM         -2.6540    -1.0860     1.9200 hc         1 8XZ       0.029700
     29 HAN         -3.9310    -2.2870    -1.3700 ha         1 8XZ       0.114500
     30 HAO         -6.1890    -1.7420    -2.2580 ha         1 8XZ       0.090500
     31 HAP         -7.6050    -0.0410    -1.1110 ha         1 8XZ       0.086000
     32 HAQ         -6.7570     1.1160     0.9270 ha         1 8XZ       0.090500
     33 HAR         -4.5000     0.5750     1.8200 ha         1 8XZ       0.114500
     34 HAE          2.2620    -1.5530     0.8120 h1         1 8XZ       0.043200
     35 HAF          2.7450     0.0660     1.3530 h1         1 8XZ       0.043200
     36 HAG          0.9220    -0.1530    -1.0610 hc         1 8XZ       0.031700
@<TRIPOS>BOND
     1     1     2 1   
     2     1    20 1   
     3     1    21 1   
     4     1    22 1   
     5     2     3 2   
     6     2     4 1   
     7     4     5 1   
     8     5     6 1   
     9     5    34 1   
    10     5    35 1   
    11     6     7 1   
    12     6    11 1   
    13     6    36 1   
    14     7     8 1   
    15     7     9 1   
    16     7    10 1   
    17    11    12 1   
    18    11    23 1   
    19    11    24 1   
    20    12    13 1   
    21    12    25 1   
    22    12    26 1   
    23    13    14 1   
    24    13    27 1   
    25    13    28 1   
    26    14    15 ar  
    27    14    19 ar  
    28    15    16 ar  
    29    15    29 1   
    30    16    17 ar  
    31    16    30 1   
    32    17    18 ar  
    33    17    31 1   
    34    18    19 ar  
    35    18    32 1   
    36    19    33 1   
@<TRIPOS>SUBSTRUCTURE
     1 8XZ         1 TEMP              0 ****  ****    0 ROOT
