@<TRIPOS>MOLECULE
8XZ
   36    36     1     0     0
SMALL
abcg2


@<TRIPOS>ATOM
      1 CAA          6.0550    -1.2970    -0.9260 c3         1 8XZ      -0.187100
      2 CAB          4.7570    -1.4110    -0.1660 c          1 8XZ       0.490700
      3 OAC          4.4510    -2.4180     0.4340 o          1 8XZ      -0.613100
      4 SAD          3.8040     0.0650    -0.2600 ss         1 8XZ      -0.157600
      5 CAE          2.3320    -0.3670     0.7190 c3         1 8XZ       0.107600
      6 CAF          1.0300     0.0780     0.0610 c3         1 8XZ      -0.364700
      7 PAP          0.9230     1.9460     0.0790 p5         1 8XZ       1.290500
      8 OAQ          0.6090     2.3110     1.5360 o          1 8XZ      -0.910500
      9 OAR          2.3280     2.3820    -0.3700 o          1 8XZ      -0.910500
     10 OAS         -0.1780     2.3410    -0.9140 o          1 8XZ      -0.910500
     11 CAG         -0.1290    -0.6130     0.7810 c3         1 8XZ      -0.011400
     12 CAH         -1.5060    -0.3710     0.1760 c3         1 8XZ      -0.073400
     13 CAI         -2.5940    -1.1780     0.8880 c3         1 8XZ      -0.042100
     14 CAJ         -3.9620    -0.9020     0.3320 ca         1 8XZ      -0.033300
     15 CAK         -4.4080    -1.5540    -0.8180 ca         1 8XZ      -0.105500
     16 CAL         -5.6530    -1.2720    -1.3620 ca         1 8XZ      -0.119500
     17 CAM         -6.4790    -0.3280    -0.7640 ca         1 8XZ      -0.141000
     18 CAN         -6.0470     0.3290     0.3800 ca         1 8XZ      -0.119500
     19 CAO         -4.7990     0.0430     0.9200 ca         1 8XZ      -0.105500
     20 HAB          6.1370    -2.1240    -1.6320 hc         1 8XZ       0.035367
     21 HAC          6.1530    -0.3600    -1.4710 hc         1 8XZ       0.035367
     22 HAA          6.8890    -1.3780    -0.2270 hc         1 8XZ       0.035367
     23 HAH          0.0510    -1.6970     0.8060 hc         1 8XZ      -0.000800
     24 HAI         -0.1400    -0.2870     1.8270 hc         1 8XZ      -0.000800
     25 HAJ         -1.7440     0.6920     0.2140 hc         1 8XZ       0.070200
     26 HAK         -1.4960    -0.6410    -0.8850 hc         1 8XZ       0.070200
     27 HAL         -2.3690    -2.2460     0.8030 hc         1 8XZ       0.029700
     28 HAM         -2.5760    -0.9410     1.9560 hc         1 8XZ       0.029700
     29 HAN         -3.7720    -2.2930    -1.2900 ha         1 8XZ       0.114500
     30 HAO         -5.9810    -1.7920    -2.2540 ha         1 8XZ       0.090500
     31 HAP         -7.4520    -0.1090    -1.1840 ha         1 8XZ       0.086000
     32 HAQ         -6.6830     1.0650     0.8570 ha         1 8XZ       0.090500
     33 HAR         -4.4730     0.5590     1.8160 ha         1 8XZ       0.114500
     34 HAE          2.3640    -1.4500     0.8550 h1         1 8XZ       0.043200
     35 HAF          2.4350     0.0920     1.7050 h1         1 8XZ       0.043200
     36 HAG          1.0420    -0.2670    -0.9810 hc         1 8XZ       0.031700
@<TRIPOS>BOND
     1     1     2 1   
     2     1    20 1   
     3     1    21 1   
     4     1    22 1   
     5     2     3 2   
     6     2     4 1   
     7     4     5 1   
     8     5     6 1   
     9     5    34 1   
    10     5    35 1   
    11     6     7 1   
    12     6    11 1   
    13     6    36 1   
    14     7     8 1   
    15     7     9 1   
    16     7    10 1   
    17    11    12 1   
    18    11    23 1   
    19    11    24 1   
    20    12    13 1   
    21    12    25 1   
    22    12    26 1   
    23    13    14 1   
    24    13    27 1   
    25    13    28 1   
    26    14    15 ar  
    27    14    19 ar  
    28    15    16 ar  
    29    15    29 1   
    30    16    17 ar  
    31    16    30 1   
    32    17    18 ar  
    33    17    31 1   
    34    18    19 ar  
    35    18    32 1   
    36    19    33 1   
@<TRIPOS>SUBSTRUCTURE
     1 8XZ         1 TEMP              0 ****  ****    0 ROOT
