@<TRIPOS>MOLECULE
8Y1
   44    47     1     0     0
SMALL
abcg2


@<TRIPOS>ATOM
      1 N1          52.8990   -13.7840    45.7890 n8         1 8Y1      -0.991200
      2 C6          51.0900   -17.0490    45.6860 c6         1 8Y1       0.112000
      3 C7          50.1260   -16.7240    46.8150 c6         1 8Y1      -0.034100
      4 C8          48.8690   -16.1720    46.2240 cc         1 8Y1      -0.050300
      5 C10         46.6650   -15.5980    45.8510 cd         1 8Y1      -0.250000
      6 C13         50.2050   -15.2370    44.3120 c          1 8Y1       0.620600
      7 C15         47.1080   -16.8560    47.9680 ca         1 8Y1      -0.062000
      8 C17         45.5920   -18.2000    49.2480 ca         1 8Y1      -0.163000
      9 C20         47.8440   -16.7030    49.1430 ca         1 8Y1       0.342900
     10 C21         53.1880   -16.9110    43.6200 ca         1 8Y1      -0.104300
     11 C22         52.6640   -17.3490    42.4040 ca         1 8Y1      -0.099000
     12 C24         54.1550   -19.2360    42.3960 ca         1 8Y1      -0.104000
     13 C26         54.2020   -17.6560    44.2130 ca         1 8Y1      -0.099000
     14 C2          53.4860   -15.0260    45.3280 c3         1 8Y1       0.141800
     15 C3          52.6060   -15.6630    44.2520 c3         1 8Y1       0.156000
     16 N5          51.2690   -15.9330    44.7630 n          1 8Y1      -0.385800
     17 C9          47.5310   -16.2170    46.7150 cc         1 8Y1      -0.058000
     18 S11         47.4390   -14.9490    44.4770 ss         1 8Y1       0.337000
     19 C12         48.9560   -15.5260    45.0260 cd         1 8Y1      -0.306600
     20 C16         45.9510   -17.6290    48.0400 ca         1 8Y1      -0.066000
     21 C18         46.4080   -17.9890    50.3500 ca         1 8Y1       0.333900
     22 N19         47.5120   -17.2530    50.3020 nb         1 8Y1      -0.666000
     23 C23         53.1410   -18.4990    41.7950 ca         1 8Y1      -0.112500
     24 C25         54.6830   -18.8110    43.6060 ca         1 8Y1      -0.112500
     25 H1          53.4430   -13.4280    46.5640 hn         1 8Y1       0.397500
     26 H2          52.9670   -13.0840    45.0600 hn         1 8Y1       0.397500
     27 H4          50.7280   -17.9270    45.1410 h1         1 8Y1       0.048700
     28 H5          52.0610   -17.3170    46.0990 h1         1 8Y1       0.048700
     29 H6          49.9320   -17.6340    47.3850 hc         1 8Y1       0.067200
     30 H7          50.5740   -16.0000    47.5020 hc         1 8Y1       0.067200
     31 H8          45.5970   -15.4840    45.9730 h4         1 8Y1       0.152000
     32 H9          44.7020   -18.8080    49.3360 ha         1 8Y1       0.124000
     33 H10         48.7390   -16.0880    49.1460 h4         1 8Y1       0.022100
     34 H11         51.8780   -16.7750    41.9270 ha         1 8Y1       0.116500
     35 H12         54.5300   -20.1340    41.9230 ha         1 8Y1       0.114000
     36 H13         54.6310   -17.3490    45.1580 ha         1 8Y1       0.116500
     37 H14         53.5830   -15.6940    46.1870 h1         1 8Y1       0.032700
     38 H15         54.4950   -14.9160    44.9060 h1         1 8Y1       0.032700
     39 H16         52.4860   -14.9240    43.4570 h1         1 8Y1       0.091700
     40 H17         45.3460   -17.7920    47.1560 ha         1 8Y1       0.121000
     41 H18         46.1600   -18.4320    51.3080 h4         1 8Y1       0.019100
     42 H19         52.7240   -18.8200    40.8490 ha         1 8Y1       0.114000
     43 H20         55.4730   -19.3770    44.0830 ha         1 8Y1       0.114000
     44 O14         50.2360   -14.4100    43.4080 o          1 8Y1      -0.574000
@<TRIPOS>BOND
     1     1    14 1   
     2     1    25 1   
     3     1    26 1   
     4     2     3 1   
     5     2    16 1   
     6     2    27 1   
     7     2    28 1   
     8     3     4 1   
     9     3    29 1   
    10     3    30 1   
    11     4    17 1   
    12     4    19 2   
    13     5    17 2   
    14     5    18 1   
    15     5    31 1   
    16     6    16 1   
    17     6    19 1   
    18     6    44 2   
    19     7     9 ar  
    20     7    17 1   
    21     7    20 ar  
    22     8    20 ar  
    23     8    21 ar  
    24     8    32 1   
    25     9    22 ar  
    26     9    33 1   
    27    10    11 ar  
    28    10    13 ar  
    29    10    15 1   
    30    11    23 ar  
    31    11    34 1   
    32    12    23 ar  
    33    12    24 ar  
    34    12    35 1   
    35    13    24 ar  
    36    13    36 1   
    37    14    15 1   
    38    14    37 1   
    39    14    38 1   
    40    15    16 1   
    41    15    39 1   
    42    18    19 1   
    43    20    40 1   
    44    21    22 ar  
    45    21    41 1   
    46    23    42 1   
    47    24    43 1   
@<TRIPOS>SUBSTRUCTURE
     1 8Y1         1 TEMP              0 ****  ****    0 ROOT
