@<TRIPOS>MOLECULE
8Y1
   44    47     1     0     0
SMALL
No Charge or Current Charge


@<TRIPOS>ATOM
      1 N1          53.0680   -13.5760    45.6550 n8         1 8Y1      -0.991200
      2 C6          51.1340   -17.0760    45.7250 c6         1 8Y1       0.112000
      3 C7          50.0840   -16.8260    46.8260 c6         1 8Y1      -0.034100
      4 C8          48.8330   -16.2560    46.2060 cc         1 8Y1      -0.050300
      5 C10         46.5730   -15.7460    45.9530 cd         1 8Y1      -0.250000
      6 C13         50.1260   -15.2620    44.2920 c          1 8Y1       0.620600
      7 C15         47.0470   -16.9670    48.0160 ca         1 8Y1      -0.062000
      8 C17         45.3120   -17.9450    49.4090 ca         1 8Y1      -0.163000
      9 C20         47.8980   -17.0820    49.1430 ca         1 8Y1       0.342900
     10 C21         53.2420   -16.8980    43.5870 ca         1 8Y1      -0.104300
     11 C22         52.8250   -17.2830    42.2960 ca         1 8Y1      -0.099000
     12 C24         54.3180   -19.2030    42.3520 ca         1 8Y1      -0.104000
     13 C26         54.2010   -17.6910    44.2580 ca         1 8Y1      -0.099000
     14 C2          53.5510   -14.9210    45.2420 c3         1 8Y1       0.141800
     15 C3          52.6170   -15.6470    44.2220 c3         1 8Y1       0.156000
     16 N5          51.2690   -15.9330    44.7850 n          1 8Y1      -0.385800
     17 C9          47.5080   -16.3940    46.7320 cc         1 8Y1      -0.058000
     18 S11         47.2940   -14.9740    44.5300 ss         1 8Y1       0.337000
     19 C12         48.8800   -15.5530    45.0310 cd         1 8Y1      -0.306600
     20 C16         45.7130   -17.4100    48.1750 ca         1 8Y1      -0.066000
     21 C18         46.2380   -18.0210    50.4600 ca         1 8Y1       0.333900
     22 N19         47.5130   -17.5940    50.3380 nb         1 8Y1      -0.666000
     23 C23         53.3610   -18.4270    41.6810 ca         1 8Y1      -0.112500
     24 C25         54.7360   -18.8350    43.6410 ca         1 8Y1      -0.112500
     25 H1          53.7720   -13.1360    46.2600 hn         1 8Y1       0.397500
     26 H2          53.0350   -12.9600    44.8350 hn         1 8Y1       0.397500
     27 H4          50.8380   -17.9620    45.1440 h1         1 8Y1       0.048700
     28 H5          52.1010   -17.3030    46.1940 h1         1 8Y1       0.048700
     29 H6          49.8900   -17.7730    47.3460 hc         1 8Y1       0.067200
     30 H7          50.4990   -16.1240    47.5610 hc         1 8Y1       0.067200
     31 H8          45.5130   -15.6180    46.1260 h4         1 8Y1       0.152000
     32 H9          44.2970   -18.3030    49.5550 ha         1 8Y1       0.124000
     33 H10         48.9200   -16.7130    49.1200 h4         1 8Y1       0.022100
     34 H11         52.0790   -16.6920    41.7670 ha         1 8Y1       0.116500
     35 H12         54.7330   -20.0890    41.8770 ha         1 8Y1       0.114000
     36 H13         54.5350   -17.4350    45.2610 ha         1 8Y1       0.116500
     37 H14         53.6620   -15.5350    46.1460 h1         1 8Y1       0.032700
     38 H15         54.5440   -14.7990    44.7890 h1         1 8Y1       0.032700
     39 H16         52.5030   -14.9350    43.3940 h1         1 8Y1       0.091700
     40 H17         45.0010   -17.3730    47.3550 ha         1 8Y1       0.121000
     41 H18         45.9510   -18.4330    51.4270 h4         1 8Y1       0.019100
     42 H19         53.0320   -18.7120    40.6840 ha         1 8Y1       0.114000
     43 H20         55.4740   -19.4390    44.1650 ha         1 8Y1       0.114000
     44 O14         50.1560   -14.5080    43.3290 o          1 8Y1      -0.574000
@<TRIPOS>BOND
     1     1    14 1   
     2     1    25 1   
     3     1    26 1   
     4     2     3 1   
     5     2    16 1   
     6     2    27 1   
     7     2    28 1   
     8     3     4 1   
     9     3    29 1   
    10     3    30 1   
    11     4    17 1   
    12     4    19 2   
    13     5    17 2   
    14     5    18 1   
    15     5    31 1   
    16     6    16 1   
    17     6    19 1   
    18     6    44 2   
    19     7     9 ar  
    20     7    17 1   
    21     7    20 ar  
    22     8    20 ar  
    23     8    21 ar  
    24     8    32 1   
    25     9    22 ar  
    26     9    33 1   
    27    10    11 ar  
    28    10    13 ar  
    29    10    15 1   
    30    11    23 ar  
    31    11    34 1   
    32    12    23 ar  
    33    12    24 ar  
    34    12    35 1   
    35    13    24 ar  
    36    13    36 1   
    37    14    15 1   
    38    14    37 1   
    39    14    38 1   
    40    15    16 1   
    41    15    39 1   
    42    18    19 1   
    43    20    40 1   
    44    21    22 ar  
    45    21    41 1   
    46    23    42 1   
    47    24    43 1   
@<TRIPOS>SUBSTRUCTURE
     1 8Y1         1 TEMP              0 ****  ****    0 ROOT
