@<TRIPOS>MOLECULE
8Y2
   58    61     1     0     0
SMALL
abcg2


@<TRIPOS>ATOM
      1 C1           5.5890    -5.1100     0.3060 ca         1 8Y2      -0.098000
      2 C2           5.6070    -4.4730    -0.9290 ca         1 8Y2      -0.115500
      3 C3           5.9940    -4.4230     1.4420 ca         1 8Y2      -0.115500
      4 C7           6.4100    -3.1020     1.3440 ca         1 8Y2      -0.086500
      5 C8          -4.4960    -0.0900     1.6150 ca         1 8Y2      -0.111000
      6 C9          -4.5270     1.7000     0.0160 ca         1 8Y2      -0.111000
      7 C10         -5.6740    -0.5940     1.0870 ca         1 8Y2      -0.015000
      8 C11         -5.7050     1.2090    -0.5250 ca         1 8Y2      -0.015000
      9 C12          2.0650     1.9050     0.4550 cc         1 8Y2      -0.192000
     10 C13          6.9850     2.9370    -0.4930 ca         1 8Y2       0.379900
     11 C14          2.8230    -0.1100    -0.3810 cd         1 8Y2      -0.248000
     12 C15          4.5020     1.7880    -0.2280 ca         1 8Y2      -0.074000
     13 C16          3.1790     1.1700    -0.0600 cc         1 8Y2      -0.025000
     14 C19         -6.2680     0.0630     0.0180 ca         1 8Y2      -0.262500
     15 C20          5.7170     1.0650    -0.1990 ca         1 8Y2       0.599300
     16 C21          0.9200     1.1700     0.5030 cd         1 8Y2      -0.093400
     17 C22         -1.4280     0.8760     1.0350 c          1 8Y2       0.596100
     18 C24         -2.6230     1.5830     1.6410 c3         1 8Y2      -0.116100
     19 C4           5.8760     3.7520    -0.5470 ca         1 8Y2      -0.206000
     20 C5           4.6260     3.1570    -0.4110 ca         1 8Y2      -0.047000
     21 C6           6.0260    -3.1540    -1.0230 ca         1 8Y2      -0.086500
     22 C17         -3.9130     1.0580     1.0870 ca         1 8Y2      -0.022300
     23 C18          6.4300    -2.4560     0.1130 ca         1 8Y2      -0.099300
     24 C23        -10.4350    -0.1620    -0.1810 c3         1 8Y2      -0.071100
     25 C25          6.8430    -1.0200     0.0060 c3         1 8Y2       0.218900
     26 C26         -9.0560     0.2820     0.2760 c3         1 8Y2      -0.294400
     27 N27          6.9020     1.6190    -0.3210 nb         1 8Y2      -0.765000
     28 N28         -0.3030     1.6220     0.9670 ns         1 8Y2      -0.376100
     29 O29         -1.4560    -0.2830     0.6610 o          1 8Y2      -0.565100
     30 O30         -7.8720    -0.1300    -2.0540 o          1 8Y2      -0.520000
     31 O31         -7.8660    -1.9920    -0.3680 o          1 8Y2      -0.520000
     32 O32          5.6370    -0.2550    -0.0300 os         1 8Y2      -0.458300
     33 S33          1.1650    -0.4360    -0.0780 ss         1 8Y2       0.306000
     34 H1           5.2660    -6.1400     0.3810 ha         1 8Y2       0.113000
     35 H2           5.2980    -5.0050    -1.8200 ha         1 8Y2       0.114000
     36 H3           5.9830    -4.9150     2.4060 ha         1 8Y2       0.114000
     37 H4           6.7240    -2.5700     2.2350 ha         1 8Y2       0.114500
     38 H5          -4.0320    -0.5990     2.4500 ha         1 8Y2       0.121000
     39 H6          -4.0830     2.5930    -0.4040 ha         1 8Y2       0.121000
     40 H7          -6.1140    -1.4890     1.5070 ha         1 8Y2       0.139000
     41 H8          -6.1680     1.7190    -1.3590 ha         1 8Y2       0.139000
     42 H9           2.1140     2.9290     0.8010 ha         1 8Y2       0.126000
     43 H10          7.9840     3.3460    -0.5910 h4         1 8Y2       0.018100
     44 H11          3.4340    -0.8920    -0.7980 h4         1 8Y2       0.164000
     45 H12         -2.5770     1.4180     2.7220 hc         1 8Y2       0.071700
     46 H13         -2.5480     2.6610     1.4880 hc         1 8Y2       0.071700
     47 H14          5.9760     4.8190    -0.6910 ha         1 8Y2       0.125000
     48 H15          3.7390     3.7750    -0.4620 ha         1 8Y2       0.119000
     49 H16          6.0450    -2.6630    -1.9900 ha         1 8Y2       0.114500
     50 H17        -10.6010     0.0610    -1.2330 hc         1 8Y2       0.053700
     51 H18        -10.5880    -1.2270    -0.0170 hc         1 8Y2       0.053700
     52 H19        -11.1860     0.3750     0.3960 hc         1 8Y2       0.053700
     53 H20          7.4550    -0.7200     0.8590 h1         1 8Y2       0.055200
     54 H21          7.4280    -0.8460    -0.9010 h1         1 8Y2       0.055200
     55 H22         -8.9010     1.3510     0.1260 h1         1 8Y2       0.092700
     56 H23         -8.8820     0.0530     1.3280 h1         1 8Y2       0.092700
     57 H24         -0.3370     2.5830     1.2740 hn         1 8Y2       0.322500
     58 S34         -7.7820    -0.5610    -0.6590 sy         1 8Y2       1.041500
@<TRIPOS>BOND
     1     1     2 ar  
     2     1     3 ar  
     3     1    34 1   
     4     2    21 ar  
     5     2    35 1   
     6     3     4 ar  
     7     3    36 1   
     8     4    23 ar  
     9     4    37 1   
    10     5     7 ar  
    11     5    22 ar  
    12     5    38 1   
    13     6     8 ar  
    14     6    22 ar  
    15     6    39 1   
    16     7    14 ar  
    17     7    40 1   
    18     8    14 ar  
    19     8    41 1   
    20     9    13 1   
    21     9    16 2   
    22     9    42 1   
    23    10    19 ar  
    24    10    27 ar  
    25    10    43 1   
    26    11    13 2   
    27    11    33 1   
    28    11    44 1   
    29    12    13 1   
    30    12    15 ar  
    31    12    20 ar  
    32    14    58 1   
    33    15    27 ar  
    34    15    32 1   
    35    16    28 1   
    36    16    33 1   
    37    17    18 1   
    38    17    28 1   
    39    17    29 2   
    40    18    22 1   
    41    18    45 1   
    42    18    46 1   
    43    19    20 ar  
    44    19    47 1   
    45    20    48 1   
    46    21    23 ar  
    47    21    49 1   
    48    23    25 1   
    49    24    26 1   
    50    24    50 1   
    51    24    51 1   
    52    24    52 1   
    53    25    32 1   
    54    25    53 1   
    55    25    54 1   
    56    26    55 1   
    57    26    56 1   
    58    26    58 1   
    59    28    57 1   
    60    30    58 2   
    61    31    58 2   
@<TRIPOS>SUBSTRUCTURE
     1 8Y2         1 TEMP              0 ****  ****    0 ROOT
