@<TRIPOS>MOLECULE
8Y2
   58    61     1     0     0
SMALL
No Charge or Current Charge


@<TRIPOS>ATOM
      1 C1           6.9370    -4.8080     0.9430 ca         1 8Y2      -0.098000
      2 C2           6.3760    -4.5540    -0.3200 ca         1 8Y2      -0.115500
      3 C3           7.4510    -3.7470     1.7070 ca         1 8Y2      -0.115500
      4 C7           7.4060    -2.4330     1.2090 ca         1 8Y2      -0.086500
      5 C8          -4.8460    -0.7360     1.7260 ca         1 8Y2      -0.111000
      6 C9          -4.1150     1.4430     0.9380 ca         1 8Y2      -0.111000
      7 C10         -5.9130    -0.7130     0.8120 ca         1 8Y2      -0.015000
      8 C11         -5.1800     1.4730     0.0210 ca         1 8Y2      -0.015000
      9 C12          1.5080     1.1720     0.7140 cc         1 8Y2      -0.192000
     10 C13          5.7530     3.0810    -1.6510 ca         1 8Y2       0.379900
     11 C14          2.6980    -0.6900    -0.0130 cd         1 8Y2      -0.248000
     12 C15          3.7800     1.5030    -0.4930 ca         1 8Y2      -0.074000
     13 C16          2.7060     0.6830     0.1160 cc         1 8Y2      -0.025000
     14 C19         -6.0830     0.3920    -0.0470 ca         1 8Y2      -0.262500
     15 C20          5.1110     1.0410    -0.7410 ca         1 8Y2       0.599300
     16 C21          0.6350     0.1940     1.1020 cd         1 8Y2      -0.093400
     17 C22         -1.5610    -0.3730     2.1610 c          1 8Y2       0.596100
     18 C24         -2.7830     0.3080     2.7850 c3         1 8Y2      -0.116100
     19 C4           4.4860     3.6290    -1.4310 ca         1 8Y2      -0.206000
     20 C5           3.4890     2.8400    -0.8430 ca         1 8Y2      -0.047000
     21 C6           6.3310    -3.2400    -0.8190 ca         1 8Y2      -0.086500
     22 C17         -3.9410     0.3400     1.7950 ca         1 8Y2      -0.022300
     23 C18          6.8480    -2.1730    -0.0580 ca         1 8Y2      -0.099300
     24 C23        -10.1010     1.3750    -1.0500 c3         1 8Y2      -0.071100
     25 C25          6.7940    -0.7500    -0.6000 c3         1 8Y2       0.218900
     26 C26         -8.7800     1.2190    -0.2580 c3         1 8Y2      -0.294400
     27 N27          6.0680     1.8170    -1.3090 nb         1 8Y2      -0.765000
     28 N28         -0.5760     0.4940     1.7170 ns         1 8Y2      -0.376100
     29 O29         -1.4820    -1.5910     2.0610 o          1 8Y2      -0.565100
     30 O30         -7.1230     1.3500    -2.3110 o          1 8Y2      -0.520000
     31 O31         -7.8920    -0.9470    -1.4810 o          1 8Y2      -0.520000
     32 O32          5.4840    -0.2200    -0.3320 os         1 8Y2      -0.458300
     33 S33          1.2560    -1.4260     0.7100 ss         1 8Y2       0.306000
     34 H1           6.9710    -5.8250     1.3290 ha         1 8Y2       0.113000
     35 H2           5.9760    -5.3740    -0.9120 ha         1 8Y2       0.114000
     36 H3           7.8840    -3.9420     2.6860 ha         1 8Y2       0.114000
     37 H4           7.8040    -1.6170     1.8090 ha         1 8Y2       0.114500
     38 H5          -4.7220    -1.5960     2.3810 ha         1 8Y2       0.121000
     39 H6          -3.4250     2.2830     0.9790 ha         1 8Y2       0.121000
     40 H7          -6.6030    -1.5560     0.7770 ha         1 8Y2       0.139000
     41 H8          -5.2980     2.3380    -0.6310 ha         1 8Y2       0.139000
     42 H9           1.3180     2.2290     0.8640 ha         1 8Y2       0.126000
     43 H10          6.5450     3.6740    -2.1070 h4         1 8Y2       0.018100
     44 H11          3.4120    -1.3400    -0.4990 h4         1 8Y2       0.164000
     45 H12         -3.0800    -0.2560     3.6770 hc         1 8Y2       0.071700
     46 H13         -2.5320     1.3350     3.0770 hc         1 8Y2       0.071700
     47 H14          4.2830     4.6560    -1.7200 ha         1 8Y2       0.125000
     48 H15          2.5000     3.2630    -0.6920 ha         1 8Y2       0.119000
     49 H16          5.8930    -3.0510    -1.7970 ha         1 8Y2       0.114500
     50 H17         -9.9530     1.9950    -1.9440 hc         1 8Y2       0.053700
     51 H18        -10.4870     0.3990    -1.3670 hc         1 8Y2       0.053700
     52 H19        -10.8650     1.8560    -0.4270 hc         1 8Y2       0.053700
     53 H20          7.5690    -0.1410    -0.1170 h1         1 8Y2       0.055200
     54 H21          6.9960    -0.7650    -1.6790 h1         1 8Y2       0.055200
     55 H22         -8.4060     2.2000     0.0540 h1         1 8Y2       0.092700
     56 H23         -8.9420     0.6010     0.6320 h1         1 8Y2       0.092700
     57 H24         -0.7990     1.4700     1.8720 hn         1 8Y2       0.322500
     58 S34         -7.4600     0.4320    -1.2140 sy         1 8Y2       1.041500
@<TRIPOS>BOND
     1     1     2 ar  
     2     1     3 ar  
     3     1    34 1   
     4     2    21 ar  
     5     2    35 1   
     6     3     4 ar  
     7     3    36 1   
     8     4    23 ar  
     9     4    37 1   
    10     5     7 ar  
    11     5    22 ar  
    12     5    38 1   
    13     6     8 ar  
    14     6    22 ar  
    15     6    39 1   
    16     7    14 ar  
    17     7    40 1   
    18     8    14 ar  
    19     8    41 1   
    20     9    13 1   
    21     9    16 2   
    22     9    42 1   
    23    10    19 ar  
    24    10    27 ar  
    25    10    43 1   
    26    11    13 2   
    27    11    33 1   
    28    11    44 1   
    29    12    13 1   
    30    12    15 ar  
    31    12    20 ar  
    32    14    58 1   
    33    15    27 ar  
    34    15    32 1   
    35    16    28 1   
    36    16    33 1   
    37    17    18 1   
    38    17    28 1   
    39    17    29 2   
    40    18    22 1   
    41    18    45 1   
    42    18    46 1   
    43    19    20 ar  
    44    19    47 1   
    45    20    48 1   
    46    21    23 ar  
    47    21    49 1   
    48    23    25 1   
    49    24    26 1   
    50    24    50 1   
    51    24    51 1   
    52    24    52 1   
    53    25    32 1   
    54    25    53 1   
    55    25    54 1   
    56    26    55 1   
    57    26    56 1   
    58    26    58 1   
    59    28    57 1   
    60    30    58 2   
    61    31    58 2   
@<TRIPOS>SUBSTRUCTURE
     1 8Y2         1 TEMP              0 ****  ****    0 ROOT
