@<TRIPOS>MOLECULE
8Y4
   37    39     1     0     0
SMALL
No Charge or Current Charge


@<TRIPOS>ATOM
      1 C1           7.7950     0.6700    -0.0490 ca         1 8Y4      -0.134000
      2 C2           7.2090    -0.6000    -0.1640 ca         1 8Y4      -0.084000
      3 C3           6.9810     1.8070     0.0710 ca         1 8Y4      -0.084000
      4 C4           5.8100    -0.7360    -0.1610 ca         1 8Y4      -0.147000
      5 C5           5.5820     1.6710     0.0740 ca         1 8Y4      -0.147000
      6 C6           4.9810     0.4020    -0.0420 ca         1 8Y4      -0.023000
      7 C7          -3.1220     0.6550     0.0730 cc         1 8Y4       0.096500
      8 C8          -3.7710    -0.5550    -0.0360 cd         1 8Y4       0.150400
      9 C9          -1.6030    -0.8200    -0.0840 cd         1 8Y4       0.485800
     10 C10         -3.9000     1.9110     0.1990 c          1 8Y4       0.522500
     11 C11         -5.7870     0.4480     0.0820 cc         1 8Y4       0.731800
     12 C12          2.6580    -0.7090    -0.1200 c          1 8Y4       0.619100
     13 C14          1.1890    -0.2590    -0.0610 c3         1 8Y4      -0.065400
     14 N15         -1.7530     0.4910     0.0430 nc         1 8Y4      -0.613000
     15 N16         -5.1600    -0.7000    -0.0360 nd         1 8Y4      -0.705100
     16 N17         -2.7970    -1.5230    -0.1390 na         1 8Y4      -0.154500
     17 N18         -5.2400     1.6780     0.1930 ns         1 8Y4      -0.458400
     18 N19         -7.1050     0.3980     0.0970 nv         1 8Y4      -1.041200
     19 N20          3.5580     0.3470    -0.0310 ns         1 8Y4      -0.140000
     20 O21         -3.4390     3.0400     0.2970 o          1 8Y4      -0.518000
     21 O22          2.9850    -1.8860    -0.2350 o          1 8Y4      -0.571100
     22 S23         -0.0450    -1.6500    -0.1800 ss         1 8Y4      -0.252300
     23 H1           8.8780     0.7740    -0.0510 ha         1 8Y4       0.116000
     24 H2           7.8410    -1.4820    -0.2570 ha         1 8Y4       0.114000
     25 H3           7.4320     2.7930     0.1600 ha         1 8Y4       0.114000
     26 H4           5.3940    -1.7350    -0.2530 ha         1 8Y4       0.128500
     27 H5           4.9630     2.5610     0.1670 ha         1 8Y4       0.128500
     28 H6          -2.5230    -3.3190    -1.2120 h1         1 8Y4       0.064367
     29 H7          -2.5070    -3.4890     0.5690 h1         1 8Y4       0.064367
     30 H8          -4.0510    -3.2210    -0.2900 h1         1 8Y4       0.064367
     31 H9           1.0400     0.2760     0.8840 h1         1 8Y4       0.101200
     32 H10          1.0210     0.4450    -0.8840 h1         1 8Y4       0.101200
     33 H11         -5.8420     2.4820     0.2500 hn         1 8Y4       0.323500
     34 H12         -7.5780     1.1030     0.6470 hn         1 8Y4       0.498500
     35 H13         -7.4720    -0.5410     0.1940 hn         1 8Y4       0.498500
     36 H14          3.1190     1.2530     0.0600 hn         1 8Y4       0.156000
     37 C13         -2.9820    -2.9760    -0.2770 c3         1 8Y4       0.058900
@<TRIPOS>BOND
     1     1     2 ar  
     2     1     3 ar  
     3     1    23 1   
     4     2     4 ar  
     5     2    24 1   
     6     3     5 ar  
     7     3    25 1   
     8     4     6 ar  
     9     4    26 1   
    10     5     6 ar  
    11     5    27 1   
    12     6    19 1   
    13     7     8 2   
    14     7    10 1   
    15     7    14 1   
    16     8    15 1   
    17     8    16 1   
    18     9    14 2   
    19     9    16 1   
    20     9    22 1   
    21    10    17 1   
    22    10    20 2   
    23    11    15 2   
    24    11    17 1   
    25    11    18 1   
    26    12    13 1   
    27    12    19 1   
    28    12    21 2   
    29    13    22 1   
    30    13    31 1   
    31    13    32 1   
    32    16    37 1   
    33    17    33 1   
    34    18    34 1   
    35    18    35 1   
    36    19    36 1   
    37    28    37 1   
    38    29    37 1   
    39    30    37 1   
@<TRIPOS>SUBSTRUCTURE
     1 8Y4         1 TEMP              0 ****  ****    0 ROOT
