@<TRIPOS>MOLECULE
8Y4
   37    39     1     0     0
SMALL
bcc


@<TRIPOS>ATOM
      1 C1           7.6720     0.4180     0.0240 ca         1 8Y4      -0.152000
      2 C2           6.9800    -0.7080    -0.3920 ca         1 8Y4      -0.102000
      3 C3           6.9540     1.5410     0.4160 ca         1 8Y4      -0.102000
      4 C4           5.5910    -0.7340    -0.4190 ca         1 8Y4      -0.165000
      5 C5           5.5710     1.5330     0.3930 ca         1 8Y4      -0.165000
      6 C6           4.8740     0.3950    -0.0210 ca         1 8Y4       0.069600
      7 C7          -3.0610     0.7560    -0.1410 cc         1 8Y4       0.161800
      8 C8          -3.6430    -0.4910    -0.0220 cd         1 8Y4       0.135800
      9 C9          -1.4730    -0.6310    -0.2170 cd         1 8Y4       0.485800
     10 C10         -3.8980     1.9060    -0.1220 c          1 8Y4       0.665000
     11 C11         -5.7160     0.2580     0.1360 cc         1 8Y4       0.731800
     12 C12          2.5620    -0.4870    -0.2610 c          1 8Y4       0.686100
     13 C14          1.1330     0.0040    -0.1640 c3         1 8Y4      -0.113300
     14 N15         -1.6970     0.6470    -0.2630 nc         1 8Y4      -0.613000
     15 N16         -4.9400    -0.7950     0.1210 nd         1 8Y4      -0.705100
     16 N17         -2.6140    -1.3800    -0.0700 na         1 8Y4      -0.175900
     17 N18         -5.2430     1.5320     0.0210 ns         1 8Y4      -0.525400
     18 N19         -7.0490     0.1080     0.2310 nv         1 8Y4      -0.930800
     19 N20          3.4750     0.4760    -0.0100 ns         1 8Y4      -0.466100
     20 O21         -3.5910     3.0840    -0.2070 o          1 8Y4      -0.593500
     21 O22          2.8160    -1.6450    -0.5360 o          1 8Y4      -0.571100
     22 S23          0.0660    -1.4420    -0.3410 ss         1 8Y4      -0.204400
     23 H1           8.7540     0.4250     0.0410 ha         1 8Y4       0.134000
     24 H2           7.5220    -1.5920    -0.7050 ha         1 8Y4       0.132000
     25 H3           7.4710     2.4330     0.7440 ha         1 8Y4       0.132000
     26 H4           5.0870    -1.6260    -0.7490 ha         1 8Y4       0.146500
     27 H5           5.0240     2.4160     0.7050 ha         1 8Y4       0.146500
     28 H6          -2.4530    -3.2970    -0.9140 h1         1 8Y4       0.064367
     29 H7          -2.0360    -3.1840     0.8100 h1         1 8Y4       0.064367
     30 H8          -3.7240    -3.0820     0.2970 h1         1 8Y4       0.064367
     31 H9           0.9450     0.4980     0.7910 h1         1 8Y4       0.101200
     32 H10          0.9280     0.7280    -0.9550 h1         1 8Y4       0.101200
     33 H11         -5.9080     2.2950     0.0330 hn         1 8Y4       0.323500
     34 H12         -7.6340     0.8840     0.4890 hn         1 8Y4       0.443300
     35 H13         -7.3900    -0.8050     0.4810 hn         1 8Y4       0.443300
     36 H14          3.1070     1.3830     0.2400 hn         1 8Y4       0.322500
     37 C13         -2.7040    -2.8180     0.0320 c3         1 8Y4       0.029600
@<TRIPOS>BOND
     1     1     2 ar  
     2     1     3 ar  
     3     1    23 1   
     4     2     4 ar  
     5     2    24 1   
     6     3     5 ar  
     7     3    25 1   
     8     4     6 ar  
     9     4    26 1   
    10     5     6 ar  
    11     5    27 1   
    12     6    19 1   
    13     7     8 2   
    14     7    10 1   
    15     7    14 1   
    16     8    15 1   
    17     8    16 1   
    18     9    14 2   
    19     9    16 1   
    20     9    22 1   
    21    10    17 1   
    22    10    20 2   
    23    11    15 2   
    24    11    17 1   
    25    11    18 1   
    26    12    13 1   
    27    12    19 1   
    28    12    21 2   
    29    13    22 1   
    30    13    31 1   
    31    13    32 1   
    32    16    37 1   
    33    17    33 1   
    34    18    34 1   
    35    18    35 1   
    36    19    36 1   
    37    28    37 1   
    38    29    37 1   
    39    30    37 1   
@<TRIPOS>SUBSTRUCTURE
     1 8Y4         1 TEMP              0 ****  ****    0 ROOT
