@<TRIPOS>MOLECULE
8Y5
   59    62     1     0     0
SMALL
No Charge or Current Charge


@<TRIPOS>ATOM
      1 C1           5.5400     5.0260     0.1200 cg         1 8Y5       0.321000
      2 C2           7.5270     2.8200    -2.1740 ca         1 8Y5      -0.117000
      3 C3           4.0410    -3.9640     1.7900 ca         1 8Y5      -0.203000
      4 C7          -5.0750     0.4960    -1.8330 ca         1 8Y5      -0.112000
      5 C8          -4.4520    -1.6050    -0.7840 ca         1 8Y5      -0.112000
      6 C9          -6.1300     0.6460    -0.9170 ca         1 8Y5      -0.013000
      7 C10         -5.5060    -1.4620     0.1360 ca         1 8Y5      -0.013000
      8 C11          6.0790     2.6220     0.2260 ca         1 8Y5      -0.051000
      9 C12          1.1770    -1.6260    -0.6280 cc         1 8Y5      -0.193000
     10 C13          5.3390    -3.4650     1.9330 ca         1 8Y5       0.379900
     11 C14          2.4760     0.2410    -0.1390 cd         1 8Y5      -0.251000
     12 C15          6.1790     3.8640    -0.4320 ca         1 8Y5      -0.022000
     13 C16          3.4420    -1.9340     0.5990 ca         1 8Y5      -0.071000
     14 C19          6.7000     1.4780    -0.3120 ca         1 8Y5      -0.100300
     15 C20         -6.3480    -0.3330     0.0740 ca         1 8Y5      -0.262500
     16 C21          4.7990    -1.5200     0.7810 ca         1 8Y5       0.595300
     17 C22          0.3550    -0.6550    -1.1280 cd         1 8Y5      -0.090400
     18 C24        -10.3990    -0.9630     1.2170 c3         1 8Y5      -0.071100
     19 C27         -9.0830    -0.9790     0.4030 c3         1 8Y5      -0.293400
     20 N29          5.7190    -2.2730     1.4350 nb         1 8Y5      -0.764000
     21 C4           6.9060     3.9600    -1.6340 ca         1 8Y5      -0.062000
     22 C5           3.0820    -3.1990     1.1140 ca         1 8Y5      -0.047000
     23 C6           7.4240     1.5820    -1.5160 ca         1 8Y5      -0.066000
     24 C17          2.4070    -1.1360    -0.1000 cc         1 8Y5      -0.026000
     25 C18         -4.2300    -0.6280    -1.7730 ca         1 8Y5      -0.018300
     26 C23         -1.8200    -0.1000    -2.2370 c          1 8Y5       0.595100
     27 C25         -3.0850    -0.7830    -2.7660 c3         1 8Y5      -0.117100
     28 C26          6.5780     0.1390     0.4030 c3         1 8Y5       0.218900
     29 N28          5.0170     5.9660     0.5760 n1         1 8Y5      -0.448000
     30 O31         -1.6730     1.1140    -2.2870 o          1 8Y5      -0.559100
     31 O32         -7.4080    -0.9440     2.4460 o          1 8Y5      -0.519000
     32 O33         -8.0640     1.2710     1.3410 o          1 8Y5      -0.519000
     33 O34          5.2350    -0.3420     0.2170 os         1 8Y5      -0.459300
     34 S35          1.0680     0.9630    -0.9400 ss         1 8Y5       0.309000
     35 H1           8.0870     2.8950    -3.1040 ha         1 8Y5       0.123000
     36 H2           3.7850    -4.9350     2.2060 ha         1 8Y5       0.127000
     37 H3          -4.9140     1.2590    -2.5910 ha         1 8Y5       0.119500
     38 H4          -3.8090    -2.4800    -0.7240 ha         1 8Y5       0.119500
     39 H5          -6.7730     1.5220    -0.9830 ha         1 8Y5       0.139000
     40 H6          -5.6620    -2.2310     0.8910 ha         1 8Y5       0.139000
     41 H7           5.5150     2.5430     1.1540 ha         1 8Y5       0.129000
     42 H8           0.9270    -2.6810    -0.6450 ha         1 8Y5       0.127000
     43 H9           6.1030    -4.0410     2.4550 h4         1 8Y5       0.020100
     44 H10          3.2300     0.9040     0.2600 h4         1 8Y5       0.162000
     45 H11        -10.2730    -1.4730     2.1800 hc         1 8Y5       0.054033
     46 H12        -10.7290     0.0660     1.4110 hc         1 8Y5       0.054033
     47 H13        -11.1960    -1.4750     0.6630 hc         1 8Y5       0.054033
     48 H14         -8.7660    -2.0100     0.2140 h1         1 8Y5       0.092700
     49 H15         -9.2220    -0.4680    -0.5560 h1         1 8Y5       0.092700
     50 H16          6.9900     4.9140    -2.1510 ha         1 8Y5       0.128000
     51 H17          2.0690    -3.5810     1.0220 ha         1 8Y5       0.120000
     52 H18          7.9040     0.7050    -1.9440 ha         1 8Y5       0.120000
     53 H19         -2.8940    -1.8500    -2.9310 hc         1 8Y5       0.072200
     54 H20         -3.3610    -0.3160    -3.7190 hc         1 8Y5       0.072200
     55 H21          7.3080    -0.5720    -0.0080 h1         1 8Y5       0.058700
     56 H22          6.7990     0.2770     1.4700 h1         1 8Y5       0.058700
     57 H23         -1.1560    -1.9340    -1.7290 hn         1 8Y5       0.322500
     58 N30         -0.8780    -0.9610    -1.6950 ns         1 8Y5      -0.379100
     59 S36         -7.7100    -0.1520     1.2450 sy         1 8Y5       1.039500
@<TRIPOS>BOND
     1     1    12 1   
     2     1    29 3   
     3     2    21 ar  
     4     2    23 ar  
     5     2    35 1   
     6     3    10 ar  
     7     3    22 ar  
     8     3    36 1   
     9     4     6 ar  
    10     4    25 ar  
    11     4    37 1   
    12     5     7 ar  
    13     5    25 ar  
    14     5    38 1   
    15     6    15 ar  
    16     6    39 1   
    17     7    15 ar  
    18     7    40 1   
    19     8    12 ar  
    20     8    14 ar  
    21     8    41 1   
    22     9    17 2   
    23     9    24 1   
    24     9    42 1   
    25    10    20 ar  
    26    10    43 1   
    27    11    24 2   
    28    11    34 1   
    29    11    44 1   
    30    12    21 ar  
    31    13    16 ar  
    32    13    22 ar  
    33    13    24 1   
    34    14    23 ar  
    35    14    28 1   
    36    15    59 1   
    37    16    20 ar  
    38    16    33 1   
    39    17    34 1   
    40    17    58 1   
    41    18    19 1   
    42    18    45 1   
    43    18    46 1   
    44    18    47 1   
    45    19    48 1   
    46    19    49 1   
    47    19    59 1   
    48    21    50 1   
    49    22    51 1   
    50    23    52 1   
    51    25    27 1   
    52    26    27 1   
    53    26    30 2   
    54    26    58 1   
    55    27    53 1   
    56    27    54 1   
    57    28    33 1   
    58    28    55 1   
    59    28    56 1   
    60    31    59 2   
    61    32    59 2   
    62    57    58 1   
@<TRIPOS>SUBSTRUCTURE
     1 8Y5         1 TEMP              0 ****  ****    0 ROOT
