@<TRIPOS>MOLECULE
8Y5
   59    62     1     0     0
SMALL
abcg2


@<TRIPOS>ATOM
      1 C1           4.9650     4.5860     1.6080 cg         1 8Y5       0.321000
      2 C2           5.7020     3.8020    -1.9330 ca         1 8Y5      -0.117000
      3 C3           5.6660    -4.3090     0.4300 ca         1 8Y5      -0.203000
      4 C7          -4.8110    -0.6600    -1.7290 ca         1 8Y5      -0.112000
      5 C8          -4.8160    -1.3530     0.5680 ca         1 8Y5      -0.112000
      6 C9          -5.9310     0.1240    -1.5040 ca         1 8Y5      -0.013000
      7 C10         -5.9320    -0.5720     0.8130 ca         1 8Y5      -0.013000
      8 C11          5.7850     2.5510     0.5490 ca         1 8Y5      -0.051000
      9 C12          1.7770    -2.4940    -0.2840 cc         1 8Y5      -0.193000
     10 C13          6.7670    -3.5070     0.2220 ca         1 8Y5       0.379900
     11 C14          2.6220    -0.4370     0.3410 cd         1 8Y5      -0.251000
     12 C15          5.3580     3.8720     0.4360 ca         1 8Y5      -0.022000
     13 C16          4.2720    -2.3540     0.1360 ca         1 8Y5      -0.071000
     14 C19          6.1690     1.8480    -0.5860 ca         1 8Y5      -0.100300
     15 C20         -6.4810     0.1620    -0.2310 ca         1 8Y5      -0.262500
     16 C21          5.4800    -1.6460    -0.0530 ca         1 8Y5       0.595300
     17 C22          0.6340    -1.7540    -0.2610 cd         1 8Y5      -0.090400
     18 C24        -10.6110     0.7670    -0.0080 c3         1 8Y5      -0.071100
     19 C27         -9.2900     0.0410    -0.1970 c3         1 8Y5      -0.293400
     20 N29          6.6700    -2.2010    -0.0170 nb         1 8Y5      -0.764000
     21 C4           5.3140     4.5040    -0.8070 ca         1 8Y5      -0.062000
     22 C5           4.4110    -3.7130     0.3840 ca         1 8Y5      -0.047000
     23 C6           6.1230     2.4820    -1.8230 ca         1 8Y5      -0.066000
     24 C17          2.9400    -1.7380     0.0660 cc         1 8Y5      -0.026000
     25 C18         -4.2430    -1.4030    -0.7000 ca         1 8Y5      -0.018300
     26 C23         -1.7560    -1.4690    -0.5630 c          1 8Y5       0.595100
     27 C25         -3.0140    -2.2250    -0.9390 c3         1 8Y5      -0.117100
     28 C26          6.5890     0.4130    -0.4660 c3         1 8Y5       0.218900
     29 N28          4.6460     5.1620     2.5540 n1         1 8Y5      -0.448000
     30 O31         -1.7340    -0.2820    -0.2950 o          1 8Y5      -0.559100
     31 O32         -7.9120     1.5670     1.4720 o          1 8Y5      -0.519000
     32 O33         -7.9690     2.2030    -0.9580 o          1 8Y5      -0.519000
     33 O34          5.3900    -0.3360    -0.2910 os         1 8Y5      -0.459300
     34 S35          0.9420    -0.1160     0.1880 ss         1 8Y5       0.309000
     35 H1           5.6730     4.2810    -2.9020 ha         1 8Y5       0.123000
     36 H2           5.7780    -5.3660     0.6240 ha         1 8Y5       0.127000
     37 H3          -4.3770    -0.6910    -2.7200 ha         1 8Y5       0.119500
     38 H4          -4.3830    -1.9280     1.3770 ha         1 8Y5       0.119500
     39 H5          -6.3610     0.6990    -2.3140 ha         1 8Y5       0.139000
     40 H6          -6.3590    -0.5360     1.8060 ha         1 8Y5       0.139000
     41 H7           5.8220     2.0780     1.5220 ha         1 8Y5       0.129000
     42 H8           1.7870    -3.5380    -0.5680 ha         1 8Y5       0.127000
     43 H9           7.7700    -3.9180     0.2440 h4         1 8Y5       0.020100
     44 H10          3.2740     0.3640     0.6440 h4         1 8Y5       0.162000
     45 H11        -10.7090     1.1690     0.9990 hc         1 8Y5       0.054033
     46 H12        -10.7320     1.5770    -0.7250 hc         1 8Y5       0.054033
     47 H13        -11.4240     0.0590    -0.1640 hc         1 8Y5       0.054033
     48 H14         -9.1720    -0.7780     0.5140 h1         1 8Y5       0.092700
     49 H15         -9.1840    -0.3590    -1.2060 h1         1 8Y5       0.092700
     50 H16          4.9840     5.5310    -0.8840 ha         1 8Y5       0.128000
     51 H17          3.5310    -4.3180     0.5560 ha         1 8Y5       0.120000
     52 H18          6.4200     1.9410    -2.7130 ha         1 8Y5       0.120000
     53 H19         -3.0570    -3.1580    -0.3710 hc         1 8Y5       0.072200
     54 H20         -2.9370    -2.5090    -1.9920 hc         1 8Y5       0.072200
     55 H21          7.1200     0.0840    -1.3620 h1         1 8Y5       0.058700
     56 H22          7.2570     0.2730     0.3870 h1         1 8Y5       0.058700
     57 H23         -0.7040    -3.2060    -0.7800 hn         1 8Y5       0.322500
     58 N30         -0.6320    -2.2230    -0.5580 ns         1 8Y5      -0.379100
     59 S36         -7.9140     1.1600     0.0670 sy         1 8Y5       1.039500
@<TRIPOS>BOND
     1     1    12 1   
     2     1    29 3   
     3     2    21 ar  
     4     2    23 ar  
     5     2    35 1   
     6     3    10 ar  
     7     3    22 ar  
     8     3    36 1   
     9     4     6 ar  
    10     4    25 ar  
    11     4    37 1   
    12     5     7 ar  
    13     5    25 ar  
    14     5    38 1   
    15     6    15 ar  
    16     6    39 1   
    17     7    15 ar  
    18     7    40 1   
    19     8    12 ar  
    20     8    14 ar  
    21     8    41 1   
    22     9    17 2   
    23     9    24 1   
    24     9    42 1   
    25    10    20 ar  
    26    10    43 1   
    27    11    24 2   
    28    11    34 1   
    29    11    44 1   
    30    12    21 ar  
    31    13    16 ar  
    32    13    22 ar  
    33    13    24 1   
    34    14    23 ar  
    35    14    28 1   
    36    15    59 1   
    37    16    20 ar  
    38    16    33 1   
    39    17    34 1   
    40    17    58 1   
    41    18    19 1   
    42    18    45 1   
    43    18    46 1   
    44    18    47 1   
    45    19    48 1   
    46    19    49 1   
    47    19    59 1   
    48    21    50 1   
    49    22    51 1   
    50    23    52 1   
    51    25    27 1   
    52    26    27 1   
    53    26    30 2   
    54    26    58 1   
    55    27    53 1   
    56    27    54 1   
    57    28    33 1   
    58    28    55 1   
    59    28    56 1   
    60    31    59 2   
    61    32    59 2   
    62    57    58 1   
@<TRIPOS>SUBSTRUCTURE
     1 8Y5         1 TEMP              0 ****  ****    0 ROOT
