@<TRIPOS>MOLECULE
8Y6
   49    54     1     0     0
SMALL
abcg2


@<TRIPOS>ATOM
      1 C1          -2.2970     0.6820     0.7710 ca         1 8Y6      -0.152300
      2 C2          -3.3300    -0.2060     0.9820 ca         1 8Y6       0.030000
      3 C3          -4.3670    -0.3500     0.0560 ca         1 8Y6      -0.222600
      4 C4          -4.3690     0.4030    -1.1290 ca         1 8Y6       0.199400
      5 C5          -3.3250     1.3060    -1.3560 ca         1 8Y6      -0.165000
      6 C6          -2.3360     1.4240    -0.4140 ca         1 8Y6       0.226000
      7 C7           2.6100    -1.7660    -0.1770 cc         1 8Y6      -0.047200
      8 C8           2.1520     0.6990     0.3740 ca         1 8Y6      -0.087800
      9 C9           1.0900     1.4130     0.9610 ca         1 8Y6      -0.044200
     10 N1           0.1160     0.5060     1.2730 na         1 8Y6      -0.052700
     11 C10          0.5260    -0.7570     0.8870 cd         1 8Y6      -0.057300
     12 C11          1.7730    -0.6700     0.3230 cc         1 8Y6      -0.095200
     13 C12          2.2300     3.4840     0.7570 ca         1 8Y6       0.191000
     14 C13          1.1110     2.8080     1.1560 ca         1 8Y6      -0.162000
     15 C14         -0.2250    -2.0340     1.1710 c          1 8Y6       0.728200
     16 C15         -1.1950     0.8600     1.7820 c3         1 8Y6       0.142900
     17 O1           0.0640    -2.9950     0.4390 o          1 8Y6      -0.700000
     18 C16          2.3530    -2.2690    -1.5110 c          1 8Y6       0.577200
     19 N2           3.1880    -3.3000    -1.8940 ns         1 8Y6      -0.371100
     20 C17          4.1980    -3.8160    -1.1560 cc         1 8Y6      -0.060400
     21 C18          4.4620    -3.3220     0.0770 cd         1 8Y6      -0.284000
     22 C19          3.6400    -2.2720     0.5560 cd         1 8Y6      -0.115000
     23 O2           1.5010    -1.8450    -2.2860 o          1 8Y6      -0.551000
     24 O3          -1.0200    -2.0280     2.1320 o          1 8Y6      -0.700000
     25 F1          -1.3560     2.3060    -0.6370 f          1 8Y6      -0.166000
     26 C20         -5.4550    -1.2880     0.3050 c          1 8Y6       0.581600
     27 O4          -5.5730    -1.9960     1.2870 o          1 8Y6      -0.526000
     28 N3          -6.3860    -1.3060    -0.7120 ns         1 8Y6      -0.437400
     29 N4          -5.3610     0.2930    -2.0760 nc         1 8Y6      -0.623100
     30 C21         -6.3030    -0.5390    -1.8270 cd         1 8Y6       0.493800
     31 F2           2.3050     4.8150     0.9230 f          1 8Y6      -0.196000
     32 C22          3.3220     2.8330     0.1660 ca         1 8Y6      -0.198800
     33 C23          3.2590     1.4570    -0.0120 ca         1 8Y6       0.132100
     34 O5           4.3880     1.0150    -0.5930 os         1 8Y6      -0.155200
     35 C25          4.5970     3.2360    -0.3570 cc         1 8Y6      -0.212200
     36 C24          5.1820     2.1030    -0.7940 cd         1 8Y6      -0.117900
     37 H2          -3.3320    -0.8070     1.8800 ha         1 8Y6       0.170000
     38 H151        -1.1530     1.8960     2.1150 h1         1 8Y6       0.073200
     39 H152        -1.4190     0.2580     2.6570 h1         1 8Y6       0.073200
     40 H5          -3.3100     1.9040    -2.2570 ha         1 8Y6       0.142000
     41 H19          3.8280    -1.8680     1.5440 ha         1 8Y6       0.182000
     42 H13          0.2860     3.3440     1.6060 ha         1 8Y6       0.122000
     43 HA           3.0310    -3.6780    -2.8180 hn         1 8Y6       0.306500
     44 H17          4.7570    -4.6190    -1.6130 h4         1 8Y6       0.175000
     45 H18          5.2670    -3.7270     0.6720 ha         1 8Y6       0.179000
     46 HB          -7.1780    -1.9280    -0.6150 hn         1 8Y6       0.320500
     47 H21         -7.1120    -0.6690    -2.5350 h5         1 8Y6       0.033800
     48 H25          5.0130     4.2280    -0.4030 ha         1 8Y6       0.201000
     49 H24          6.1350     1.9140    -1.2620 h4         1 8Y6       0.224000
@<TRIPOS>BOND
     1     1     2 ar  
     2     1     6 ar  
     3     1    16 1   
     4     2     3 ar  
     5     2    37 1   
     6     3     4 ar  
     7     3    26 1   
     8     4     5 ar  
     9     4    29 1   
    10     5     6 ar  
    11     5    40 1   
    12     6    25 1   
    13     7    12 1   
    14     7    18 1   
    15     7    22 2   
    16     8     9 ar  
    17     8    12 1   
    18     8    33 ar  
    19     9    10 1   
    20     9    14 ar  
    21    10    11 1   
    22    10    16 1   
    23    11    12 2   
    24    11    15 1   
    25    13    14 ar  
    26    13    31 1   
    27    13    32 ar  
    28    14    42 1   
    29    15    17 1   
    30    15    24 1   
    31    16    38 1   
    32    16    39 1   
    33    18    19 1   
    34    18    23 2   
    35    19    20 1   
    36    19    43 1   
    37    20    21 2   
    38    20    44 1   
    39    21    22 1   
    40    21    45 1   
    41    22    41 1   
    42    26    27 2   
    43    26    28 1   
    44    28    30 1   
    45    28    46 1   
    46    29    30 2   
    47    30    47 1   
    48    32    33 ar  
    49    32    35 1   
    50    33    34 1   
    51    34    36 1   
    52    35    36 2   
    53    35    48 1   
    54    36    49 1   
@<TRIPOS>SUBSTRUCTURE
     1 8Y6         1 TEMP              0 ****  ****    0 ROOT
