@<TRIPOS>MOLECULE
8Y6
   49    54     1     0     0
SMALL
No Charge or Current Charge


@<TRIPOS>ATOM
      1 C1          -2.3760     0.6740     0.7100 ca         1 8Y6      -0.152300
      2 C2          -3.4800    -0.1770     0.9090 ca         1 8Y6       0.030000
      3 C3          -4.5220    -0.2310    -0.0410 ca         1 8Y6      -0.222600
      4 C4          -4.4810     0.5640    -1.2030 ca         1 8Y6       0.199400
      5 C5          -3.3820     1.4150    -1.3880 ca         1 8Y6      -0.165000
      6 C6          -2.3440     1.4740    -0.4480 ca         1 8Y6       0.226000
      7 C7           2.7110    -1.8200    -0.1970 cc         1 8Y6      -0.047200
      8 C8           2.2160     0.6390     0.5120 ca         1 8Y6      -0.087800
      9 C9           1.1130     1.2730     1.0340 ca         1 8Y6      -0.044200
     10 N1           0.0810     0.3590     1.2280 na         1 8Y6      -0.052700
     11 C10          0.5990    -0.9340     0.9120 cd         1 8Y6      -0.057300
     12 C11          1.8930    -0.7650     0.3760 cc         1 8Y6      -0.095200
     13 C12          2.2410     3.4360     0.9090 ca         1 8Y6       0.191000
     14 C13          1.1040     2.6760     1.2600 ca         1 8Y6      -0.162000
     15 C14         -0.0450    -2.2530     1.2810 c          1 8Y6       0.728200
     16 C15         -1.2560     0.7250     1.7530 c3         1 8Y6       0.142900
     17 O1           0.6390    -3.2660     1.3430 o          1 8Y6      -0.700000
     18 C16          2.1260    -2.8640    -1.0990 c          1 8Y6       0.577200
     19 N2           3.0290    -3.8020    -1.5420 ns         1 8Y6      -0.371100
     20 C17          4.3820    -3.8150    -1.2620 cc         1 8Y6      -0.060400
     21 C18          4.9260    -2.8260    -0.4730 cd         1 8Y6      -0.284000
     22 C19          4.0730    -1.7980     0.0700 cd         1 8Y6      -0.115000
     23 O2           0.9720    -2.8840    -1.5100 o          1 8Y6      -0.551000
     24 O3          -1.2080    -2.2570     1.6590 o          1 8Y6      -0.700000
     25 F1          -1.3210     2.3280    -0.6670 f          1 8Y6      -0.166000
     26 C20         -5.6840    -1.1270     0.1620 c          1 8Y6       0.581600
     27 O4          -5.8290    -1.8540     1.1320 o          1 8Y6      -0.526000
     28 N3          -6.5940    -1.0700    -0.8340 ns         1 8Y6      -0.437400
     29 N4          -5.4750     0.5660    -2.1950 nc         1 8Y6      -0.623100
     30 C21         -6.4840    -0.2700    -1.9370 cd         1 8Y6       0.493800
     31 F2           2.2550     4.7750     1.0890 f          1 8Y6      -0.196000
     32 C22          3.3390     2.7790     0.3290 ca         1 8Y6      -0.198800
     33 C23          3.3240     1.4160     0.1270 ca         1 8Y6       0.132100
     34 O5           4.4700     1.0570    -0.5180 os         1 8Y6      -0.155200
     35 C25          4.5910     3.2920    -0.1940 cc         1 8Y6      -0.212200
     36 C24          5.2420     2.1790    -0.7070 cd         1 8Y6      -0.117900
     37 H2          -3.5270    -0.8010     1.8000 ha         1 8Y6       0.170000
     38 H151        -1.2240     1.7330     2.1800 h1         1 8Y6       0.073200
     39 H152        -1.4910     0.0580     2.5900 h1         1 8Y6       0.073200
     40 H5          -3.3310     2.0430    -2.2720 ha         1 8Y6       0.142000
     41 H19          4.4930    -1.0520     0.7380 ha         1 8Y6       0.182000
     42 H13          0.2380     3.1850     1.6700 ha         1 8Y6       0.122000
     43 HA           2.6380    -4.5130    -2.1490 hn         1 8Y6       0.306500
     44 H17          4.9200    -4.6420    -1.7190 h4         1 8Y6       0.175000
     45 H18          5.9910    -2.8310    -0.2490 ha         1 8Y6       0.179000
     46 HB          -7.4010    -1.6680    -0.7310 hn         1 8Y6       0.320500
     47 H21         -7.3240    -0.3770    -2.6120 h5         1 8Y6       0.033800
     48 H25          4.9520     4.3190    -0.2040 ha         1 8Y6       0.201000
     49 H24          6.2030     2.0650    -1.2030 h4         1 8Y6       0.224000
@<TRIPOS>BOND
     1     1     2 ar  
     2     1     6 ar  
     3     1    16 1   
     4     2     3 ar  
     5     2    37 1   
     6     3     4 ar  
     7     3    26 1   
     8     4     5 ar  
     9     4    29 1   
    10     5     6 ar  
    11     5    40 1   
    12     6    25 1   
    13     7    12 1   
    14     7    18 1   
    15     7    22 2   
    16     8     9 ar  
    17     8    12 1   
    18     8    33 ar  
    19     9    10 1   
    20     9    14 ar  
    21    10    11 1   
    22    10    16 1   
    23    11    12 2   
    24    11    15 1   
    25    13    14 ar  
    26    13    31 1   
    27    13    32 ar  
    28    14    42 1   
    29    15    17 1   
    30    15    24 1   
    31    16    38 1   
    32    16    39 1   
    33    18    19 1   
    34    18    23 2   
    35    19    20 1   
    36    19    43 1   
    37    20    21 2   
    38    20    44 1   
    39    21    22 1   
    40    21    45 1   
    41    22    41 1   
    42    26    27 2   
    43    26    28 1   
    44    28    30 1   
    45    28    46 1   
    46    29    30 2   
    47    30    47 1   
    48    32    33 ar  
    49    32    35 1   
    50    33    34 1   
    51    34    36 1   
    52    35    36 2   
    53    35    48 1   
    54    36    49 1   
@<TRIPOS>SUBSTRUCTURE
     1 8Y6         1 TEMP              0 ****  ****    0 ROOT
