@<TRIPOS>MOLECULE
8Y7
   25    26     1     0     0
SMALL
No Charge or Current Charge


@<TRIPOS>ATOM
      1 C1           1.3820     0.6430     0.0210 cc         1 8Y7       0.114500
      2 C2           1.7540    -0.6780    -0.0980 cd         1 8Y7       0.105400
      3 C3          -0.4210    -0.4770    -0.0410 cd         1 8Y7       0.517800
      4 C4           2.4140     1.7080     0.0910 c          1 8Y7       0.517500
      5 C5           3.9420    -0.1240    -0.0910 cc         1 8Y7       0.700800
      6 C6          -4.5670     0.4800     0.1180 c          1 8Y7       0.733000
      7 C8          -3.0370     0.6520     0.1040 c3         1 8Y7      -0.076400
      8 N9           0.0090     0.7730     0.0570 nc         1 8Y7      -0.622000
      9 N10          3.0800    -1.1140    -0.1600 nd         1 8Y7      -0.694100
     10 N11          0.5930    -1.4170    -0.1400 na         1 8Y7      -0.163500
     11 N12          3.6740     1.1960     0.0260 ns         1 8Y7      -0.457400
     12 N13          5.2210    -0.4500    -0.1360 nv         1 8Y7      -1.052200
     13 O14         -5.1630     0.5120    -0.9500 o          1 8Y7      -0.713500
     14 O15          2.2090     2.9110     0.1920 o          1 8Y7      -0.535000
     15 O16         -5.1220     0.3280     1.1980 o          1 8Y7      -0.713500
     16 S17         -2.1220    -0.9630    -0.0500 ss         1 8Y7      -0.303300
     17 H1          -0.0740    -3.2720     0.6130 h1         1 8Y7       0.055367
     18 H2          -0.1080    -3.1200    -1.1690 h1         1 8Y7       0.055367
     19 H3           1.4480    -3.3450    -0.3200 h1         1 8Y7       0.055367
     20 H4          -2.7700     1.3020    -0.7380 h1         1 8Y7       0.062700
     21 H5          -2.7370     1.1510     1.0340 h1         1 8Y7       0.062700
     22 H6           4.4350     1.8550     0.0450 hn         1 8Y7       0.309500
     23 H7           5.8650     0.1610     0.3510 hn         1 8Y7       0.486500
     24 H8           5.3980    -1.4420    -0.0310 hn         1 8Y7       0.486500
     25 C7           0.4580    -2.8770    -0.2610 c3         1 8Y7       0.067900
@<TRIPOS>BOND
     1     1     2 2   
     2     1     4 1   
     3     1     8 1   
     4     2     9 1   
     5     2    10 1   
     6     3     8 2   
     7     3    10 1   
     8     3    16 1   
     9     4    11 1   
    10     4    14 2   
    11     5     9 2   
    12     5    11 1   
    13     5    12 1   
    14     6     7 1   
    15     6    13 1   
    16     6    15 1   
    17     7    16 1   
    18     7    20 1   
    19     7    21 1   
    20    10    25 1   
    21    11    22 1   
    22    12    23 1   
    23    12    24 1   
    24    17    25 1   
    25    18    25 1   
    26    19    25 1   
@<TRIPOS>SUBSTRUCTURE
     1 8Y7         1 TEMP              0 ****  ****    0 ROOT
