@<TRIPOS>MOLECULE
8Y7
   25    26     1     0     0
SMALL
abcg2


@<TRIPOS>ATOM
      1 C1           1.3370     0.7190    -0.0250 cc         1 8Y7       0.114500
      2 C2           1.7200    -0.6080    -0.0400 cd         1 8Y7       0.105400
      3 C3          -0.4590    -0.3980    -0.0070 cd         1 8Y7       0.517800
      4 C4           2.3460     1.7200    -0.0260 c          1 8Y7       0.517500
      5 C5           3.8940    -0.2000    -0.0670 cc         1 8Y7       0.700800
      6 C6          -4.4830     0.3720     0.0390 c          1 8Y7       0.733000
      7 C8          -2.9680     0.6400     0.0150 c3         1 8Y7      -0.076400
      8 N9          -0.0320     0.8310    -0.0040 nc         1 8Y7      -0.622000
      9 N10          2.9600    -1.1170    -0.0600 nd         1 8Y7      -0.694100
     10 N11          0.5620    -1.3210    -0.0290 na         1 8Y7      -0.163500
     11 N12          3.6210     1.1360    -0.0480 ns         1 8Y7      -0.457400
     12 N13          5.1870    -0.5590    -0.1360 nv         1 8Y7      -1.052200
     13 O14         -5.2010     1.3850     0.0270 o          1 8Y7      -0.713500
     14 O15          2.2240     2.9350    -0.0090 o          1 8Y7      -0.535000
     15 O16         -4.8360    -0.8220     0.0700 o          1 8Y7      -0.713500
     16 S17         -2.1120    -0.9540     0.0150 ss         1 8Y7      -0.303300
     17 H1          -0.0810    -3.1000     0.8680 h1         1 8Y7       0.055367
     18 H2          -0.1280    -3.0920    -0.9070 h1         1 8Y7       0.055367
     19 H3           1.4210    -3.1990    -0.0610 h1         1 8Y7       0.055367
     20 H4          -2.6870     1.2090    -0.8730 h1         1 8Y7       0.062700
     21 H5          -2.6620     1.2220     0.8850 h1         1 8Y7       0.062700
     22 H6           4.3970     1.7860    -0.0570 hn         1 8Y7       0.309500
     23 H7           5.9120     0.0960     0.1040 hn         1 8Y7       0.486500
     24 H8           5.4020    -1.5290     0.0220 hn         1 8Y7       0.486500
     25 C7           0.4280    -2.7580    -0.0320 c3         1 8Y7       0.067900
@<TRIPOS>BOND
     1     1     2 2   
     2     1     4 1   
     3     1     8 1   
     4     2     9 1   
     5     2    10 1   
     6     3     8 2   
     7     3    10 1   
     8     3    16 1   
     9     4    11 1   
    10     4    14 2   
    11     5     9 2   
    12     5    11 1   
    13     5    12 1   
    14     6     7 1   
    15     6    13 1   
    16     6    15 1   
    17     7    16 1   
    18     7    20 1   
    19     7    21 1   
    20    10    25 1   
    21    11    22 1   
    22    12    23 1   
    23    12    24 1   
    24    17    25 1   
    25    18    25 1   
    26    19    25 1   
@<TRIPOS>SUBSTRUCTURE
     1 8Y7         1 TEMP              0 ****  ****    0 ROOT
