@<TRIPOS>MOLECULE
8Y8
   50    52     1     0     0
SMALL
No Charge or Current Charge


@<TRIPOS>ATOM
      1 C1          -5.6820    -2.8830    -2.0280 cg         1 8Y8       0.332000
      2 C2          -7.0190    -0.8840    -1.5120 ca         1 8Y8      -0.028000
      3 C3           4.1270     0.7620     1.9300 ca         1 8Y8      -0.111500
      4 C4           3.0210    -1.1400     0.9000 ca         1 8Y8      -0.111500
      5 C5          -7.1380     0.3810    -0.9210 ca         1 8Y8      -0.214000
      6 C6           5.1530     0.6900     0.9720 ca         1 8Y8      -0.014000
      7 C7           4.0440    -1.2180    -0.0620 ca         1 8Y8      -0.014000
      8 C8          -4.7130    -1.0070    -0.7580 ca         1 8Y8      -0.032000
      9 C9          -2.4800     0.0640     0.9750 cc         1 8Y8      -0.192000
     10 C10         -3.3580     2.1740     0.5430 cd         1 8Y8      -0.254000
     11 C11         -5.8070    -1.5840    -1.4270 ca         1 8Y8      -0.066000
     12 C12         -4.8000     0.2770    -0.1700 ca         1 8Y8      -0.048000
     13 C13         -3.5940     0.8160     0.5010 cc         1 8Y8      -0.030000
     14 C14          3.0560    -0.1510     1.9010 ca         1 8Y8      -0.020300
     15 C15         -6.0440     0.9710    -0.2430 ca         1 8Y8       0.180100
     16 C16          5.1140    -0.3010    -0.0300 ca         1 8Y8      -0.262500
     17 C17         -1.4470     0.8270     1.4450 cd         1 8Y8      -0.088400
     18 C18          0.8380     0.8830     2.4650 c          1 8Y8       0.597100
     19 C19          8.8820    -1.7830    -1.3400 c3         1 8Y8      -0.071100
     20 C20         -7.4250     2.9340     0.3920 c3         1 8Y8       0.145900
     21 C21          1.9440    -0.0650     2.9400 c3         1 8Y8      -0.117100
     22 C22          7.6270    -1.5220    -0.4740 c3         1 8Y8      -0.293400
     23 N23         -5.5710    -3.9390    -2.5120 n1         1 8Y8      -0.463000
     24 N24         -0.2890     0.2540     1.9600 ns         1 8Y8      -0.379100
     25 O25          0.9610     2.0990     2.5250 o          1 8Y8      -0.562100
     26 O26          5.9210    -1.0960    -2.4460 o          1 8Y8      -0.519500
     27 O27          7.0870     0.9070    -1.3590 o          1 8Y8      -0.519500
     28 O28         -6.1960     2.1860     0.4020 os         1 8Y8      -0.330100
     29 S29         -1.7970     2.5630     1.2890 ss         1 8Y8       0.306000
     30 S30          6.4350    -0.4050    -1.2550 sy         1 8Y8       1.041500
     31 H1          -7.8720    -1.3220    -2.0280 ha         1 8Y8       0.125000
     32 H2           4.1660     1.5330     2.6970 ha         1 8Y8       0.120500
     33 H3           2.2010    -1.8530     0.8630 ha         1 8Y8       0.120500
     34 H4          -8.0980     0.8840    -0.9910 ha         1 8Y8       0.123000
     35 H5           5.9740     1.4050     1.0160 ha         1 8Y8       0.139000
     36 H6           3.9990    -1.9930    -0.8260 ha         1 8Y8       0.139000
     37 H7          -3.7770    -1.5580    -0.7250 ha         1 8Y8       0.128000
     38 H8          -2.4660    -1.0210     0.9790 ha         1 8Y8       0.130000
     39 H9          -3.9650     2.9860     0.1670 h4         1 8Y8       0.157000
     40 H10          8.6100    -2.2410    -2.2990 hc         1 8Y8       0.053700
     41 H11          9.4200    -0.8490    -1.5440 hc         1 8Y8       0.053700
     42 H12          9.5690    -2.4630    -0.8220 hc         1 8Y8       0.053700
     43 H13         -7.7120     3.1990    -0.6330 h1         1 8Y8       0.045700
     44 H14         -8.2380     2.3560     0.8510 h1         1 8Y8       0.045700
     45 H15         -7.3080     3.8640     0.9620 h1         1 8Y8       0.045700
     46 H16          1.5330    -1.0670     3.1080 hc         1 8Y8       0.072200
     47 H17          2.3530     0.3190     3.8810 hc         1 8Y8       0.072200
     48 H18          7.1000    -2.4620    -0.2760 h1         1 8Y8       0.092700
     49 H19          7.9110    -1.0670     0.4810 h1         1 8Y8       0.092700
     50 H20         -0.2280    -0.7570     1.9790 hn         1 8Y8       0.324500
@<TRIPOS>BOND
     1     1    11 1   
     2     1    23 3   
     3     2     5 ar  
     4     2    11 ar  
     5     2    31 1   
     6     3     6 ar  
     7     3    14 ar  
     8     3    32 1   
     9     4     7 ar  
    10     4    14 ar  
    11     4    33 1   
    12     5    15 ar  
    13     5    34 1   
    14     6    16 ar  
    15     6    35 1   
    16     7    16 ar  
    17     7    36 1   
    18     8    11 ar  
    19     8    12 ar  
    20     8    37 1   
    21     9    13 1   
    22     9    17 2   
    23     9    38 1   
    24    10    13 2   
    25    10    29 1   
    26    10    39 1   
    27    12    13 1   
    28    12    15 ar  
    29    14    21 1   
    30    15    28 1   
    31    16    30 1   
    32    17    24 1   
    33    17    29 1   
    34    18    21 1   
    35    18    24 1   
    36    18    25 2   
    37    19    22 1   
    38    19    40 1   
    39    19    41 1   
    40    19    42 1   
    41    20    28 1   
    42    20    43 1   
    43    20    44 1   
    44    20    45 1   
    45    21    46 1   
    46    21    47 1   
    47    22    30 1   
    48    22    48 1   
    49    22    49 1   
    50    24    50 1   
    51    26    30 2   
    52    27    30 2   
@<TRIPOS>SUBSTRUCTURE
     1 8Y8         1 TEMP              0 ****  ****    0 ROOT
