@<TRIPOS>MOLECULE
8Y8
   50    52     1     0     0
SMALL
bcc


@<TRIPOS>ATOM
      1 C1          -7.4710    -2.7490    -0.6700 cg         1 8Y8       0.242800
      2 C2          -8.0640    -0.4250    -0.2120 ca         1 8Y8      -0.046000
      3 C3           3.9280     0.1820     1.6070 ca         1 8Y8      -0.129500
      4 C4           3.6190    -1.3820    -0.1870 ca         1 8Y8      -0.129500
      5 C5          -7.6830     0.8790     0.0410 ca         1 8Y8      -0.232000
      6 C6           5.1970     0.4810     1.1390 ca         1 8Y8      -0.032000
      7 C7           4.8840    -1.0940    -0.6700 ca         1 8Y8      -0.032000
      8 C8          -5.7420    -1.0570    -0.3500 ca         1 8Y8      -0.050000
      9 C9          -2.9540    -0.3800     0.5060 cc         1 8Y8      -0.210000
     10 C10         -3.2830     1.6710    -0.5070 cd         1 8Y8      -0.127100
     11 C11         -7.0920    -1.4020    -0.4070 ca         1 8Y8      -0.066000
     12 C12         -5.3360     0.2450    -0.1010 ca         1 8Y8      -0.048000
     13 C13         -3.8970     0.5470    -0.0350 cc         1 8Y8      -0.030000
     14 C14          3.1290    -0.7510     0.9530 ca         1 8Y8      -0.020300
     15 C15         -6.3320     1.2260     0.1010 ca         1 8Y8       0.180100
     16 C16          5.6640    -0.1630     0.0020 ca         1 8Y8      -0.262500
     17 C17         -1.6700     0.0660     0.4270 cd         1 8Y8       0.056500
     18 C18          0.7140    -0.1510     0.8180 c          1 8Y8       0.664100
     19 C19          9.7880    -0.8080    -0.1110 c3         1 8Y8      -0.071100
     20 C20         -6.8540     3.4890     0.6060 c3         1 8Y8       0.122700
     21 C21          1.7490    -1.0580     1.4500 c3         1 8Y8      -0.117100
     22 C22          8.3310    -0.9900     0.2760 c3         1 8Y8      -0.182600
     23 N23         -7.7820    -3.8390    -0.8810 n1         1 8Y8      -0.373800
     24 N24         -0.5560    -0.6140     0.8860 ns         1 8Y8      -0.446100
     25 O25          0.9790     0.9230     0.3110 o          1 8Y8      -0.562100
     26 O26          7.3480    -0.1130    -2.0190 o          1 8Y8      -0.590300
     27 O27          7.6680     1.5360    -0.1510 o          1 8Y8      -0.590300
     28 O28         -5.9080     2.4620     0.3590 os         1 8Y8      -0.306900
     29 S29         -1.5780     1.6230    -0.3140 ss         1 8Y8       0.016200
     30 S30          7.2970     0.1910    -0.5890 sy         1 8Y8       1.072300
     31 H1          -9.1140    -0.6780    -0.2580 ha         1 8Y8       0.143000
     32 H2           3.5600     0.6800     2.4950 ha         1 8Y8       0.138500
     33 H3           3.0050    -2.1080    -0.7050 ha         1 8Y8       0.138500
     34 H4          -8.4540     1.6210     0.1920 ha         1 8Y8       0.141000
     35 H5           5.8070     1.2090     1.6570 ha         1 8Y8       0.157000
     36 H6           5.2480    -1.5910    -1.5590 ha         1 8Y8       0.157000
     37 H7          -4.9950    -1.8210    -0.5170 ha         1 8Y8       0.146000
     38 H8          -3.2220    -1.3250     0.9590 ha         1 8Y8       0.148000
     39 H9          -3.7280     2.5260    -0.9880 h4         1 8Y8       0.175000
     40 H10          9.9450    -0.9740    -1.1750 hc         1 8Y8       0.053700
     41 H11         10.1540     0.1840     0.1500 hc         1 8Y8       0.053700
     42 H12         10.3880    -1.5370     0.4300 hc         1 8Y8       0.053700
     43 H13         -7.4950     3.6650    -0.2600 h1         1 8Y8       0.045700
     44 H14         -7.4780     3.2620     1.4740 h1         1 8Y8       0.045700
     45 H15         -6.2790     4.3880     0.8090 h1         1 8Y8       0.045700
     46 H16          1.4960    -2.1040     1.2630 hc         1 8Y8       0.072200
     47 H17          1.6910    -0.9150     2.5330 hc         1 8Y8       0.072200
     48 H18          7.9610    -1.9820     0.0160 h1         1 8Y8       0.092700
     49 H19          8.1680    -0.8300     1.3430 h1         1 8Y8       0.092700
     50 H20         -0.7280    -1.5160     1.3050 hn         1 8Y8       0.324500
@<TRIPOS>BOND
     1     1    11 1   
     2     1    23 3   
     3     2     5 ar  
     4     2    11 ar  
     5     2    31 1   
     6     3     6 ar  
     7     3    14 ar  
     8     3    32 1   
     9     4     7 ar  
    10     4    14 ar  
    11     4    33 1   
    12     5    15 ar  
    13     5    34 1   
    14     6    16 ar  
    15     6    35 1   
    16     7    16 ar  
    17     7    36 1   
    18     8    11 ar  
    19     8    12 ar  
    20     8    37 1   
    21     9    13 1   
    22     9    17 2   
    23     9    38 1   
    24    10    13 2   
    25    10    29 1   
    26    10    39 1   
    27    12    13 1   
    28    12    15 ar  
    29    14    21 1   
    30    15    28 1   
    31    16    30 1   
    32    17    24 1   
    33    17    29 1   
    34    18    21 1   
    35    18    24 1   
    36    18    25 2   
    37    19    22 1   
    38    19    40 1   
    39    19    41 1   
    40    19    42 1   
    41    20    28 1   
    42    20    43 1   
    43    20    44 1   
    44    20    45 1   
    45    21    46 1   
    46    21    47 1   
    47    22    30 1   
    48    22    48 1   
    49    22    49 1   
    50    24    50 1   
    51    26    30 2   
    52    27    30 2   
@<TRIPOS>SUBSTRUCTURE
     1 8Y8         1 TEMP              0 ****  ****    0 ROOT
