@<TRIPOS>MOLECULE
8YA
   56    60     1     0     0
SMALL
abcg2


@<TRIPOS>ATOM
      1 C10          0.2740     3.4740     8.6120 ca         1 8YA      -0.119000
      2 C13          1.4700    -0.1420     8.8780 c3         1 8YA      -0.045800
      3 C20         -3.1270    -4.2660    10.3000 ca         1 8YA       0.406900
      4 C22         -4.3410    -6.3310     9.9260 c6         1 8YA       0.210800
      5 C26         -5.7470    -9.1820     6.8990 c3         1 8YA      -0.149400
      6 C02         -2.0800    -1.1880     8.3830 ca         1 8YA       0.130000
      7 C03         -1.4150    -0.4450     9.3840 cp         1 8YA      -0.045000
      8 C04         -0.8160     0.8890     9.1240 cp         1 8YA       0.027000
      9 C05         -1.6430     2.0260     9.1130 ca         1 8YA      -0.205900
     10 C06         -3.0330     2.2700     9.3020 cc         1 8YA       0.360800
     11 N07         -3.3070     3.5570     9.1760 nd         1 8YA      -0.511100
     12 N08         -2.1340     4.1770     8.9080 na         1 8YA      -0.075400
     13 C09         -1.0910     3.3020     8.8570 ca         1 8YA      -0.035200
     14 C11          1.0590     2.3400     8.6320 ca         1 8YA      -0.073000
     15 C12          0.5420     1.0440     8.8830 ca         1 8YA      -0.078300
     16 C14         -1.3860    -1.0030    10.6380 ca         1 8YA       0.199000
     17 F15         -0.7890    -0.3190    11.6340 f          1 8YA      -0.146000
     18 C16         -1.9760    -2.2430    10.9650 ca         1 8YA       0.013000
     19 N17         -2.0100    -2.6410    12.2670 nb         1 8YA      -0.184000
     20 C18         -2.6820    -3.7440    12.4950 ca         1 8YA       0.169900
     21 N19         -3.2350    -4.5690    11.5950 nb         1 8YA      -0.287000
     22 N21         -3.5830    -5.1830     9.4180 nh         1 8YA      -0.784300
     23 C23         -5.0800    -7.0240     8.7960 c6         1 8YA       0.088000
     24 N24         -4.1310    -7.5320     7.8010 n          1 8YA      -0.411800
     25 C25         -4.3810    -8.5230     6.9170 c          1 8YA       0.619100
     26 C27         -6.5130    -8.7940     5.6330 c3         1 8YA       0.155800
     27 N28         -6.7740    -7.3490     5.6040 n8         1 8YA      -1.009200
     28 O29         -3.5250    -8.8890     6.1030 o          1 8YA      -0.615100
     29 C30         -2.8680    -6.7990     7.7130 c6         1 8YA       0.088000
     30 C31         -3.0790    -5.3300     8.0460 c6         1 8YA       0.210800
     31 C32         -2.5680    -2.9850     9.9110 ca         1 8YA      -0.144000
     32 C33         -2.6420    -2.4160     8.6250 ca         1 8YA      -0.086000
     33 H101         0.6970     4.4500     8.4140 ha         1 8YA       0.121000
     34 H131         1.5720    -0.5710     9.8780 hc         1 8YA       0.045367
     35 H132         1.0980    -0.9340     8.2250 hc         1 8YA       0.045367
     36 H133         2.4630     0.1450     8.5340 hc         1 8YA       0.045367
     37 H221        -5.0640    -5.9790    10.6580 h1         1 8YA       0.067200
     38 H222        -3.6780    -7.0370    10.4340 h1         1 8YA       0.067200
     39 H262        -6.3520    -8.9440     7.7720 hc         1 8YA       0.060700
     40 H261        -5.5810   -10.2610     6.8960 hc         1 8YA       0.060700
     41 H061        -3.8180     1.5630     9.5180 h4         1 8YA       0.052800
     42 H081        -2.1140     5.1750     8.7760 hn         1 8YA       0.376000
     43 H111         2.1210     2.4350     8.4420 ha         1 8YA       0.115000
     44 H181        -2.7900    -4.0470    13.5320 h5         1 8YA       0.051100
     45 H232        -5.7900    -6.3330     8.3320 h1         1 8YA       0.063200
     46 H231        -5.6420    -7.8450     9.2320 h1         1 8YA       0.063200
     47 H272        -5.9090    -9.0470     4.7600 h1         1 8YA       0.044200
     48 H271        -7.4270    -9.3990     5.5870 h1         1 8YA       0.044200
     49 H282        -7.2190    -7.0970     4.7290 hn         1 8YA       0.395500
     50 H281        -7.4300    -7.1040     6.3390 hn         1 8YA       0.395500
     51 H301        -2.1210    -7.2350     8.3820 h1         1 8YA       0.063200
     52 H302        -2.4920    -6.8790     6.6960 h1         1 8YA       0.063200
     53 H311        -2.1230    -4.8220     7.9560 h1         1 8YA       0.067200
     54 H312        -3.7740    -4.8920     7.3250 h1         1 8YA       0.067200
     55 H331        -3.1580    -2.9130     7.8220 ha         1 8YA       0.136000
     56 CL          -2.1830    -0.5240     6.7720 cl         1 8YA      -0.185000
@<TRIPOS>BOND
     1     1    13 ar  
     2     1    14 ar  
     3     1    33 1   
     4     2    15 1   
     5     2    34 1   
     6     2    35 1   
     7     2    36 1   
     8     3    21 ar  
     9     3    22 1   
    10     3    31 ar  
    11     4    22 1   
    12     4    23 1   
    13     4    37 1   
    14     4    38 1   
    15     5    25 1   
    16     5    26 1   
    17     5    39 1   
    18     5    40 1   
    19     6     7 ar  
    20     6    32 ar  
    21     6    56 1   
    22     7     8 1   
    23     7    16 ar  
    24     8     9 ar  
    25     8    15 ar  
    26     9    10 1   
    27     9    13 ar  
    28    10    11 2   
    29    10    41 1   
    30    11    12 1   
    31    12    13 1   
    32    12    42 1   
    33    14    15 ar  
    34    14    43 1   
    35    16    17 1   
    36    16    18 ar  
    37    18    19 ar  
    38    18    31 ar  
    39    19    20 ar  
    40    20    21 ar  
    41    20    44 1   
    42    22    30 1   
    43    23    24 1   
    44    23    45 1   
    45    23    46 1   
    46    24    25 1   
    47    24    29 1   
    48    25    28 2   
    49    26    27 1   
    50    26    47 1   
    51    26    48 1   
    52    27    49 1   
    53    27    50 1   
    54    29    30 1   
    55    29    51 1   
    56    29    52 1   
    57    30    53 1   
    58    30    54 1   
    59    31    32 ar  
    60    32    55 1   
@<TRIPOS>SUBSTRUCTURE
     1 8YA         1 TEMP              0 ****  ****    0 ROOT
