@<TRIPOS>MOLECULE
8YA
   56    60     1     0     0
SMALL
No Charge or Current Charge


@<TRIPOS>ATOM
      1 C10         -0.1430     3.5500     8.4170 ca         1 8YA      -0.119000
      2 C13          1.4950     0.1170     8.9620 c3         1 8YA      -0.045800
      3 C20         -2.7210    -4.4110    10.4480 ca         1 8YA       0.406900
      4 C22         -4.4710    -6.1660     9.9900 c6         1 8YA       0.210800
      5 C26         -6.1480    -8.8240     6.6720 c3         1 8YA      -0.149400
      6 C02         -2.0770    -1.2990     8.4440 ca         1 8YA       0.130000
      7 C03         -1.4230    -0.4890     9.4020 cp         1 8YA      -0.045000
      8 C04         -0.9560     0.8850     9.0580 cp         1 8YA       0.027000
      9 C05         -1.8760     1.9450     8.9220 ca         1 8YA      -0.205900
     10 C06         -3.3120     2.0200     9.0470 cc         1 8YA       0.360800
     11 N07         -3.7780     3.2610     8.8310 nd         1 8YA      -0.511100
     12 N08         -2.6160     3.9950     8.5620 na         1 8YA      -0.075400
     13 C09         -1.4840     3.2110     8.6170 ca         1 8YA      -0.035200
     14 C11          0.8150     2.5230     8.5390 ca         1 8YA      -0.073000
     15 C12          0.4220     1.1950     8.8550 ca         1 8YA      -0.078300
     16 C14         -1.2340    -1.0100    10.7040 ca         1 8YA       0.199000
     17 F15         -0.6330    -0.2390    11.6440 f          1 8YA      -0.146000
     18 C16         -1.6680    -2.3080    11.0550 ca         1 8YA       0.013000
     19 N17         -1.4940    -2.7860    12.3080 nb         1 8YA      -0.184000
     20 C18         -1.9440    -4.0290    12.5700 ca         1 8YA       0.169900
     21 N19         -2.5470    -4.8630    11.7040 nb         1 8YA      -0.287000
     22 N21         -3.3210    -5.3180     9.5470 nh         1 8YA      -0.784300
     23 C23         -5.1580    -6.9160     8.8110 c6         1 8YA       0.088000
     24 N24         -4.2210    -7.6940     7.9430 n          1 8YA      -0.411800
     25 C25         -4.6470    -8.6040     6.9440 c          1 8YA       0.619100
     26 C27         -6.5780    -8.1880     5.3390 c3         1 8YA       0.155800
     27 N28         -6.6450    -6.7170     5.4260 n8         1 8YA      -1.009200
     28 O29         -3.8200    -9.2490     6.3080 o          1 8YA      -0.615100
     29 C30         -2.7730    -7.4110     8.1800 c6         1 8YA       0.088000
     30 C31         -2.4880    -5.9050     8.4470 c6         1 8YA       0.210800
     31 C32         -2.3010    -3.1090    10.0710 ca         1 8YA      -0.144000
     32 C33         -2.5120    -2.5910     8.7750 ca         1 8YA      -0.086000
     33 H101         0.1530     4.5680     8.1750 ha         1 8YA       0.121000
     34 H131         1.6790    -0.1520    10.0080 hc         1 8YA       0.045367
     35 H132         1.1980    -0.7940     8.4270 hc         1 8YA       0.045367
     36 H133         2.4480     0.4470     8.5330 hc         1 8YA       0.045367
     37 H221        -5.2260    -5.5450    10.4950 h1         1 8YA       0.067200
     38 H222        -4.1250    -6.9130    10.7200 h1         1 8YA       0.067200
     39 H262        -6.7860    -8.4310     7.4670 hc         1 8YA       0.060700
     40 H261        -6.3170    -9.9030     6.5840 hc         1 8YA       0.060700
     41 H061        -4.0380     1.2520     9.2790 h4         1 8YA       0.052800
     42 H081        -2.6480     4.9920     8.3550 hn         1 8YA       0.376000
     43 H111         1.8660     2.7580     8.3860 ha         1 8YA       0.115000
     44 H181        -1.7990    -4.3960    13.5840 h5         1 8YA       0.051100
     45 H232        -5.6880    -6.1820     8.1890 h1         1 8YA       0.063200
     46 H231        -5.9090    -7.5910     9.2440 h1         1 8YA       0.063200
     47 H272        -5.8730    -8.4730     4.5450 h1         1 8YA       0.044200
     48 H271        -7.5730    -8.5640     5.0620 h1         1 8YA       0.044200
     49 H282        -6.9540    -6.3420     4.5210 hn         1 8YA       0.395500
     50 H281        -7.4050    -6.4520     6.0640 hn         1 8YA       0.395500
     51 H301        -2.4320    -8.0010     9.0420 h1         1 8YA       0.063200
     52 H302        -2.1720    -7.7240     7.3150 h1         1 8YA       0.063200
     53 H311        -1.4190    -5.7910     8.6790 h1         1 8YA       0.067200
     54 H312        -2.6690    -5.3540     7.5130 h1         1 8YA       0.067200
     55 H331        -3.0250    -3.1760     8.0180 ha         1 8YA       0.136000
     56 Cl          -2.3570    -0.7210     6.8020 cl         1 8YA      -0.185000
@<TRIPOS>BOND
     1     1    13 ar  
     2     1    14 ar  
     3     1    33 1   
     4     2    15 1   
     5     2    34 1   
     6     2    35 1   
     7     2    36 1   
     8     3    21 ar  
     9     3    22 1   
    10     3    31 ar  
    11     4    22 1   
    12     4    23 1   
    13     4    37 1   
    14     4    38 1   
    15     5    25 1   
    16     5    26 1   
    17     5    39 1   
    18     5    40 1   
    19     6     7 ar  
    20     6    32 ar  
    21     6    56 1   
    22     7     8 1   
    23     7    16 ar  
    24     8     9 ar  
    25     8    15 ar  
    26     9    10 1   
    27     9    13 ar  
    28    10    11 2   
    29    10    41 1   
    30    11    12 1   
    31    12    13 1   
    32    12    42 1   
    33    14    15 ar  
    34    14    43 1   
    35    16    17 1   
    36    16    18 ar  
    37    18    19 ar  
    38    18    31 ar  
    39    19    20 ar  
    40    20    21 ar  
    41    20    44 1   
    42    22    30 1   
    43    23    24 1   
    44    23    45 1   
    45    23    46 1   
    46    24    25 1   
    47    24    29 1   
    48    25    28 2   
    49    26    27 1   
    50    26    47 1   
    51    26    48 1   
    52    27    49 1   
    53    27    50 1   
    54    29    30 1   
    55    29    51 1   
    56    29    52 1   
    57    30    53 1   
    58    30    54 1   
    59    31    32 ar  
    60    32    55 1   
@<TRIPOS>SUBSTRUCTURE
     1 8YA         1 TEMP              0 ****  ****    0 ROOT
