@<TRIPOS>MOLECULE
8YB
   56    59     1     0     0
SMALL
No Charge or Current Charge


@<TRIPOS>ATOM
      1 C1           8.0260     2.3660     2.2050 c3         1 8YB      -0.071100
      2 C2           7.0340     1.5240     1.3660 c3         1 8YB      -0.291400
      3 O4           8.8180     0.0940     0.0430 o          1 8YB      -0.521500
      4 O5           7.8100    -0.8610     2.1930 o          1 8YB      -0.521500
      5 C7           5.3010    -1.5660     0.6320 ca         1 8YB      -0.013500
      6 C8           4.2440    -2.1170    -0.1130 ca         1 8YB      -0.111000
      7 C9           4.1890    -1.9460    -1.5090 ca         1 8YB      -0.025300
      8 C10          5.2030    -1.2130    -2.1550 ca         1 8YB      -0.111000
      9 C11          6.2630    -0.6580    -1.4170 ca         1 8YB      -0.013500
     10 C12          3.0380    -2.5390    -2.3150 c3         1 8YB      -0.113100
     11 C13          1.9110    -1.5150    -2.4710 c          1 8YB       0.603100
     12 C16         -0.2860    -0.9330    -1.5030 cc         1 8YB       0.525300
     13 C19         -2.1080     0.6400    -1.4160 cc         1 8YB      -0.380600
     14 C21         -2.9830     1.8230    -1.5100 c          1 8YB       0.631300
     15 C24         -2.9460     2.2140     0.9940 ca         1 8YB      -0.066000
     16 C27         -5.5300     3.3010     0.9560 ca         1 8YB      -0.113000
     17 C30         -3.4340    -0.8380     0.2300 ca         1 8YB      -0.123500
     18 C31         -4.7490    -0.4880    -0.1620 ca         1 8YB      -0.080000
     19 C32         -5.8610    -0.8960     0.5950 ca         1 8YB      -0.105000
     20 C33         -5.6820    -1.6910     1.7370 ca         1 8YB      -0.092000
     21 C34         -4.3910    -2.0930     2.1070 ca         1 8YB       0.110000
     22 C35         -3.2790    -1.6860     1.3520 ca         1 8YB      -0.071000
     23 S3           7.6700    -0.1150     0.9350 sy         1 8YB       1.040500
     24 C6           6.3170    -0.8360    -0.0190 ca         1 8YB      -0.259500
     25 O14          1.9740    -0.6040    -3.2820 o          1 8YB      -0.550100
     26 N15          0.8470    -1.6920    -1.6230 ns         1 8YB      -0.472400
     27 N17         -1.1700    -1.3230    -0.6070 nd         1 8YB      -0.713000
     28 C18         -2.2480    -0.4470    -0.5730 cd         1 8YB       0.429500
     29 S20         -0.7280     0.4640    -2.4580 ss         1 8YB       0.165600
     30 O22         -3.0060     2.5010    -2.5280 o          1 8YB      -0.504100
     31 C23         -3.6410     2.3020    -0.2360 ca         1 8YB      -0.146600
     32 C25         -3.5410     2.6560     2.1870 ca         1 8YB      -0.112000
     33 C26         -4.8340     3.1980     2.1710 ca         1 8YB      -0.084000
     34 C28         -4.9420     2.8630    -0.2430 ca         1 8YB       0.155000
     35 Cl2         -5.9090     2.9700    -1.7150 cl         1 8YB      -0.187000
     36 Cl3         -4.1630    -3.1150     3.5210 cl         1 8YB      -0.204000
     37 H1           8.2630     1.8660     3.1520 hc         1 8YB       0.054367
     38 H2           8.9630     2.5300     1.6580 hc         1 8YB       0.054367
     39 H3           7.5930     3.3460     2.4370 hc         1 8YB       0.054367
     40 H4           6.1030     1.3680     1.9210 h1         1 8YB       0.096200
     41 H5           6.8050     2.0340     0.4230 h1         1 8YB       0.096200
     42 H6           5.3240    -1.7080     1.7110 ha         1 8YB       0.140500
     43 H7           3.4670    -2.6780     0.4010 ha         1 8YB       0.120500
     44 H8           5.1690    -1.0670    -3.2320 ha         1 8YB       0.120500
     45 H9           7.0350    -0.0920    -1.9360 ha         1 8YB       0.140500
     46 H10          3.3960    -2.8180    -3.3120 hc         1 8YB       0.079700
     47 H11          2.6640    -3.4330    -1.8030 hc         1 8YB       0.079700
     48 H13         -6.5350     3.7160     0.9430 ha         1 8YB       0.132000
     49 H14         -4.9260     0.0760    -1.0730 ha         1 8YB       0.128000
     50 H15         -6.8630    -0.6080     0.2850 ha         1 8YB       0.122000
     51 H16         -6.5410    -2.0100     2.3230 ha         1 8YB       0.130000
     52 H17         -2.2890    -2.0120     1.6620 ha         1 8YB       0.138000
     53 H18          0.9150    -2.4780    -0.9950 hn         1 8YB       0.344500
     54 H19         -2.9960     2.5790     3.1260 ha         1 8YB       0.123000
     55 H20         -5.2960     3.5380     3.0950 ha         1 8YB       0.120000
     56 H12         -1.9350     1.8130     1.0300 ha         1 8YB       0.124000
@<TRIPOS>BOND
     1     1     2 1   
     2     1    37 1   
     3     1    38 1   
     4     1    39 1   
     5     2    23 1   
     6     2    40 1   
     7     2    41 1   
     8     3    23 2   
     9     4    23 2   
    10     5     6 ar  
    11     5    24 ar  
    12     5    42 1   
    13     6     7 ar  
    14     6    43 1   
    15     7     8 ar  
    16     7    10 1   
    17     8     9 ar  
    18     8    44 1   
    19     9    24 ar  
    20     9    45 1   
    21    10    11 1   
    22    10    46 1   
    23    10    47 1   
    24    11    25 2   
    25    11    26 1   
    26    12    26 1   
    27    12    27 2   
    28    12    29 1   
    29    13    14 1   
    30    13    28 2   
    31    13    29 1   
    32    14    30 2   
    33    14    31 1   
    34    15    31 ar  
    35    15    32 ar  
    36    15    56 1   
    37    16    33 ar  
    38    16    34 ar  
    39    16    48 1   
    40    17    18 ar  
    41    17    22 ar  
    42    17    28 1   
    43    18    19 ar  
    44    18    49 1   
    45    19    20 ar  
    46    19    50 1   
    47    20    21 ar  
    48    20    51 1   
    49    21    22 ar  
    50    21    36 1   
    51    22    52 1   
    52    23    24 1   
    53    26    53 1   
    54    27    28 1   
    55    31    34 ar  
    56    32    33 ar  
    57    32    54 1   
    58    33    55 1   
    59    34    35 1   
@<TRIPOS>SUBSTRUCTURE
     1 8YB         1 TEMP              0 ****  ****    0 ROOT
