@<TRIPOS>MOLECULE
8YB
   56    59     1     0     0
SMALL
bcc


@<TRIPOS>ATOM
      1 C1           9.5720     2.4690     0.3720 c3         1 8YB      -0.071100
      2 C2           8.2810     1.6980     0.1570 c3         1 8YB      -0.180600
      3 O4           9.3870    -0.3280    -1.1380 o          1 8YB      -0.592300
      4 O5           9.1370    -0.4990     1.3570 o          1 8YB      -0.592300
      5 C7           6.2530    -1.1200     0.9830 ca         1 8YB      -0.031500
      6 C8           4.9850    -1.6510     0.8140 ca         1 8YB      -0.129000
      7 C9           4.4550    -1.8360    -0.4590 ca         1 8YB      -0.025300
      8 C10          5.2150    -1.4830    -1.5700 ca         1 8YB      -0.129000
      9 C11          6.4860    -0.9520    -1.4190 ca         1 8YB      -0.031500
     10 C12          3.0730    -2.3900    -0.6240 c3         1 8YB      -0.113100
     11 C13          2.0270    -1.3030    -0.5800 c          1 8YB       0.670100
     12 C16         -0.3500    -0.9460    -0.3630 cc         1 8YB       0.525300
     13 C19         -1.9910     0.8090    -0.2950 cc         1 8YB      -0.301000
     14 C21         -2.6080     2.1260    -0.2330 c          1 8YB       0.631300
     15 C24         -4.1410     1.7410     1.6860 ca         1 8YB      -0.084000
     16 C27         -6.2300     3.0580     0.4250 ca         1 8YB      -0.131000
     17 C30         -3.8880    -0.8690    -0.0300 ca         1 8YB      -0.123500
     18 C31         -4.8710    -0.3540    -0.8700 ca         1 8YB      -0.098000
     19 C32         -6.1960    -0.7200    -0.6950 ca         1 8YB      -0.123000
     20 C33         -6.5560    -1.6060     0.3090 ca         1 8YB      -0.110000
     21 C34         -5.5640    -2.1330     1.1220 ca         1 8YB       0.018400
     22 C35         -4.2350    -1.7850     0.9600 ca         1 8YB      -0.089000
     23 S3           8.6030    -0.0620     0.0680 sy         1 8YB       1.071300
     24 C6           6.9910    -0.7710    -0.1390 ca         1 8YB      -0.259500
     25 O14          2.2620    -0.1200    -0.6960 o          1 8YB      -0.550100
     26 N15          0.7470    -1.7540    -0.4150 ns         1 8YB      -0.539400
     27 N17         -1.5390    -1.4470    -0.1930 nd         1 8YB      -0.713000
     28 C18         -2.4810    -0.4710    -0.1680 cd         1 8YB       0.494800
     29 S20         -0.2680     0.7650    -0.5150 ss         1 8YB       0.020700
     30 O22         -2.0070     3.1040    -0.6330 o          1 8YB      -0.504100
     31 C23         -3.9490     2.2560     0.4060 ca         1 8YB      -0.146600
     32 C25         -5.3550     1.8870     2.3360 ca         1 8YB      -0.130000
     33 C26         -6.3990     2.5420     1.7010 ca         1 8YB      -0.102000
     34 C28         -5.0050     2.9220    -0.2070 ca         1 8YB       0.063400
     35 CL2         -4.8470     3.5110    -1.8290 cl         1 8YB      -0.095400
     36 CL3         -5.9970    -3.2520     2.3740 cl         1 8YB      -0.112400
     37 H1          10.0590     2.1880     1.3040 hc         1 8YB       0.054367
     38 H2          10.2700     2.3210    -0.4500 hc         1 8YB       0.054367
     39 H3           9.3400     3.5310     0.4240 hc         1 8YB       0.054367
     40 H4           7.5750     1.8480     0.9750 h1         1 8YB       0.096200
     41 H5           7.7910     1.9770    -0.7760 h1         1 8YB       0.096200
     42 H6           6.6520    -0.9850     1.9790 ha         1 8YB       0.158500
     43 H7           4.4070    -1.9290     1.6870 ha         1 8YB       0.138500
     44 H8           4.8170    -1.6310    -2.5650 ha         1 8YB       0.138500
     45 H9           7.0680    -0.6910    -2.2920 ha         1 8YB       0.158500
     46 H10          2.9720    -2.9050    -1.5850 hc         1 8YB       0.079700
     47 H11          2.8570    -3.1350     0.1450 hc         1 8YB       0.079700
     48 H13         -7.0470     3.5570    -0.0780 ha         1 8YB       0.150000
     49 H14         -4.6050     0.3180    -1.6760 ha         1 8YB       0.146000
     50 H15         -6.9570    -0.3160    -1.3480 ha         1 8YB       0.140000
     51 H16         -7.5900    -1.8890     0.4490 ha         1 8YB       0.148000
     52 H17         -3.4770    -2.1990     1.6110 ha         1 8YB       0.156000
     53 H18          0.5690    -2.7450    -0.3140 hn         1 8YB       0.344500
     54 H19         -5.4870     1.4840     3.3300 ha         1 8YB       0.141000
     55 H20         -7.3560     2.6510     2.1930 ha         1 8YB       0.138000
     56 H12         -3.3280     1.2220     2.1760 ha         1 8YB       0.142000
@<TRIPOS>BOND
     1     1     2 1   
     2     1    37 1   
     3     1    38 1   
     4     1    39 1   
     5     2    23 1   
     6     2    40 1   
     7     2    41 1   
     8     3    23 2   
     9     4    23 2   
    10     5     6 ar  
    11     5    24 ar  
    12     5    42 1   
    13     6     7 ar  
    14     6    43 1   
    15     7     8 ar  
    16     7    10 1   
    17     8     9 ar  
    18     8    44 1   
    19     9    24 ar  
    20     9    45 1   
    21    10    11 1   
    22    10    46 1   
    23    10    47 1   
    24    11    25 2   
    25    11    26 1   
    26    12    26 1   
    27    12    27 2   
    28    12    29 1   
    29    13    14 1   
    30    13    28 2   
    31    13    29 1   
    32    14    30 2   
    33    14    31 1   
    34    15    31 ar  
    35    15    32 ar  
    36    15    56 1   
    37    16    33 ar  
    38    16    34 ar  
    39    16    48 1   
    40    17    18 ar  
    41    17    22 ar  
    42    17    28 1   
    43    18    19 ar  
    44    18    49 1   
    45    19    20 ar  
    46    19    50 1   
    47    20    21 ar  
    48    20    51 1   
    49    21    22 ar  
    50    21    36 1   
    51    22    52 1   
    52    23    24 1   
    53    26    53 1   
    54    27    28 1   
    55    31    34 ar  
    56    32    33 ar  
    57    32    54 1   
    58    33    55 1   
    59    34    35 1   
@<TRIPOS>SUBSTRUCTURE
     1 8YB         1 TEMP              0 ****  ****    0 ROOT
