@<TRIPOS>MOLECULE
8YC
   40    41     1     0     0
SMALL
bcc


@<TRIPOS>ATOM
      1 O1           0.7080    -1.9140    -0.4960 o          1 8YC      -0.556100
      2 C5           0.7670    -0.8060     0.0010 c          1 8YC       0.676100
      3 N1           1.9650    -0.2970     0.3940 n          1 8YC      -0.497800
      4 C1           3.1780    -1.0980     0.3000 c5         1 8YC       0.184800
      5 C6           3.4780    -1.4680    -1.0840 c1         1 8YC       0.193200
      6 N2           3.7600    -1.7560    -2.1610 n1         1 8YC      -0.337800
      7 C3           4.2670    -0.2010     0.9080 c5         1 8YC      -0.087900
      8 C4           3.4850     0.6750     1.8750 c5         1 8YC      -0.087900
      9 C2           2.1800     0.9410     1.1190 c5         1 8YC       0.184800
     10 C7           2.3090     2.0750     0.1910 c1         1 8YC       0.193200
     11 N3           2.4120     2.9570    -0.5390 n1         1 8YC      -0.337800
     12 C8          -0.4420     0.0740     0.2270 c3         1 8YC       0.094800
     13 N4          -1.6110    -0.5010    -0.3800 n7         1 8YC      -0.778200
     14 C9          -2.8720     0.1840    -0.0970 c5         1 8YC       0.187200
     15 C14         -2.8510     1.5900    -0.6820 c3         1 8YC       0.153400
     16 O2          -2.6200     1.5340    -2.0670 oh         1 8YC      -0.572800
     17 C10         -3.2230     0.2770     1.4190 c5         1 8YC      -0.093400
     18 C11         -4.6500    -0.2520     1.5540 c5         1 8YC      -0.082900
     19 C12         -4.7180    -1.3280     0.4760 c5         1 8YC      -0.082900
     20 C13         -4.0220    -0.6580    -0.7070 c5         1 8YC      -0.093400
     21 H1           3.0720    -2.0240     0.8730 h1         1 8YC       0.085700
     22 H2           5.0360    -0.7940     1.3950 hc         1 8YC       0.070950
     23 H3           4.7450     0.4060     0.1380 hc         1 8YC       0.070950
     24 H4           3.2400     0.1300     2.7870 hc         1 8YC       0.070950
     25 H5           4.0080     1.5880     2.1500 hc         1 8YC       0.070950
     26 H6           1.3610     1.1570     1.8070 h1         1 8YC       0.085700
     27 H9          -0.5290     0.2480     1.3130 h1         1 8YC       0.047200
     28 H10         -0.2390     1.0550    -0.2160 h1         1 8YC       0.047200
     29 H11         -1.6960    -1.4690    -0.0940 hn         1 8YC       0.376800
     30 H13         -3.8180     2.0550    -0.4470 h1         1 8YC       0.012200
     31 H14         -2.0920     2.2000    -0.1720 h1         1 8YC       0.012200
     32 H15         -2.7030     2.4260    -2.4160 ho         1 8YC       0.399000
     33 H16         -2.5480    -0.3670     1.9900 hc         1 8YC       0.052700
     34 H17         -3.1020     1.2860     1.8200 hc         1 8YC       0.052700
     35 H18         -4.8670    -0.6230     2.5570 hc         1 8YC       0.045450
     36 H19         -5.3770     0.5370     1.3380 hc         1 8YC       0.045450
     37 H20         -4.1630    -2.2140     0.8000 hc         1 8YC       0.045450
     38 H21         -5.7340    -1.6500     0.2430 hc         1 8YC       0.045450
     39 H22         -4.7340    -0.0070    -1.2190 hc         1 8YC       0.052700
     40 H23         -3.6490    -1.3630    -1.4510 hc         1 8YC       0.052700
@<TRIPOS>BOND
     1     1     2 2   
     2     2     3 1   
     3     2    12 1   
     4     3     4 1   
     5     3     9 1   
     6     4     5 1   
     7     4     7 1   
     8     4    21 1   
     9     5     6 3   
    10     7     8 1   
    11     7    22 1   
    12     7    23 1   
    13     8     9 1   
    14     8    24 1   
    15     8    25 1   
    16     9    10 1   
    17     9    26 1   
    18    10    11 3   
    19    12    13 1   
    20    12    27 1   
    21    12    28 1   
    22    13    14 1   
    23    13    29 1   
    24    14    15 1   
    25    14    17 1   
    26    14    20 1   
    27    15    16 1   
    28    15    30 1   
    29    15    31 1   
    30    16    32 1   
    31    17    18 1   
    32    17    33 1   
    33    17    34 1   
    34    18    19 1   
    35    18    35 1   
    36    18    36 1   
    37    19    20 1   
    38    19    37 1   
    39    19    38 1   
    40    20    39 1   
    41    20    40 1   
@<TRIPOS>SUBSTRUCTURE
     1 8YC         1 TEMP              0 ****  ****    0 ROOT
