@<TRIPOS>MOLECULE
8YC
   40    41     1     0     0
SMALL
No Charge or Current Charge


@<TRIPOS>ATOM
      1 O1           0.6460    -2.0860    -0.0440 o          1 8YC      -0.556100
      2 C5           0.7760    -0.8950     0.2200 c          1 8YC       0.609100
      3 N1           2.0630    -0.3580     0.4690 n          1 8YC      -0.430800
      4 C1           3.3050    -1.1820     0.3870 c5         1 8YC       0.184800
      5 C6           3.5580    -1.8340    -0.9250 c1         1 8YC       0.282400
      6 N2           3.7890    -2.3190    -1.9610 n1         1 8YC      -0.427000
      7 C3           4.4060    -0.1370     0.7320 c5         1 8YC      -0.087900
      8 C4           3.6730     0.7750     1.7490 c5         1 8YC      -0.087900
      9 C2           2.2880     0.9860     1.0710 c5         1 8YC       0.184800
     10 C7           2.2940     2.0960     0.0820 c1         1 8YC       0.282400
     11 N3           2.2760     2.9440    -0.7180 n1         1 8YC      -0.427000
     12 C8          -0.4630     0.0630     0.2930 c3         1 8YC       0.094800
     13 N4          -1.7470    -0.5090    -0.2400 n7         1 8YC      -0.833400
     14 C9          -3.0000     0.2950    -0.0700 c5         1 8YC       0.187200
     15 C14         -2.8940     1.7760    -0.5910 c3         1 8YC       0.176600
     16 O2          -2.5830     1.8490    -1.9950 oh         1 8YC      -0.635000
     17 C10         -3.4010     0.1930     1.4540 c5         1 8YC      -0.093400
     18 C11         -4.8220    -0.4330     1.4490 c5         1 8YC      -0.082900
     19 C12         -4.6860    -1.4550     0.2990 c5         1 8YC      -0.082900
     20 C13         -4.1230    -0.5240    -0.8030 c5         1 8YC      -0.093400
     21 H1           3.2770    -1.9830     1.1390 h1         1 8YC       0.085700
     22 H2           5.3050    -0.6020     1.1520 hc         1 8YC       0.070950
     23 H3           4.7210     0.4340    -0.1520 hc         1 8YC       0.070950
     24 H4           3.5590     0.2680     2.7150 hc         1 8YC       0.070950
     25 H5           4.2070     1.7140     1.9440 hc         1 8YC       0.070950
     26 H6           1.5290     1.2390     1.8230 h1         1 8YC       0.085700
     27 H9          -0.5750     0.3490     1.3470 h1         1 8YC       0.047200
     28 H10         -0.2060     0.9710    -0.2660 h1         1 8YC       0.047200
     29 H11         -1.8880    -1.4400     0.1690 hn         1 8YC       0.432000
     30 H13         -3.8500     2.2800    -0.3990 h1         1 8YC       0.012200
     31 H14         -2.1290     2.3070    -0.0090 h1         1 8YC       0.012200
     32 H15         -2.4980     2.8010    -2.2180 ho         1 8YC       0.438000
     33 H16         -2.7170    -0.4410     2.0310 hc         1 8YC       0.052700
     34 H17         -3.3980     1.1700     1.9500 hc         1 8YC       0.052700
     35 H18         -5.0720    -0.9080     2.4050 hc         1 8YC       0.045450
     36 H19         -5.5970     0.3150     1.2420 hc         1 8YC       0.045450
     37 H20         -3.9990    -2.2730     0.5480 hc         1 8YC       0.045450
     38 H21         -5.6470    -1.9010     0.0190 hc         1 8YC       0.045450
     39 H22         -4.9120     0.1400    -1.1790 hc         1 8YC       0.052700
     40 H23         -3.7530    -1.0800    -1.6720 hc         1 8YC       0.052700
@<TRIPOS>BOND
     1     1     2 2   
     2     2     3 1   
     3     2    12 1   
     4     3     4 1   
     5     3     9 1   
     6     4     5 1   
     7     4     7 1   
     8     4    21 1   
     9     5     6 3   
    10     7     8 1   
    11     7    22 1   
    12     7    23 1   
    13     8     9 1   
    14     8    24 1   
    15     8    25 1   
    16     9    10 1   
    17     9    26 1   
    18    10    11 3   
    19    12    13 1   
    20    12    27 1   
    21    12    28 1   
    22    13    14 1   
    23    13    29 1   
    24    14    15 1   
    25    14    17 1   
    26    14    20 1   
    27    15    16 1   
    28    15    30 1   
    29    15    31 1   
    30    16    32 1   
    31    17    18 1   
    32    17    33 1   
    33    17    34 1   
    34    18    19 1   
    35    18    35 1   
    36    18    36 1   
    37    19    20 1   
    38    19    37 1   
    39    19    38 1   
    40    20    39 1   
    41    20    40 1   
@<TRIPOS>SUBSTRUCTURE
     1 8YC         1 TEMP              0 ****  ****    0 ROOT
