@<TRIPOS>MOLECULE
8YD
   54    58     1     0     0
SMALL
bcc


@<TRIPOS>ATOM
      1 C10         -6.0520    -1.1420    -1.3400 ca         1 8YD      -0.133000
      2 C13         -3.0840     0.5610    -3.0090 c3         1 8YD      -0.045800
      3 C20          1.7530     1.6970     0.7870 ca         1 8YD       0.721200
      4 C22          4.1060     1.4540     1.3340 c6         1 8YD       0.191800
      5 C26          6.7730    -1.6000    -1.1810 c3         1 8YD      -0.153400
      6 C02         -1.0160    -0.6560    -0.1330 ca         1 8YD       0.041400
      7 C03         -2.1030     0.2380    -0.2520 cp         1 8YD      -0.056000
      8 C04         -3.4540    -0.2170    -0.6440 cp         1 8YD       0.025000
      9 C05         -4.2840    -0.8150     0.3180 ca         1 8YD      -0.205900
     10 C06         -4.1710    -1.1280     1.6980 cc         1 8YD       0.356800
     11 N07         -5.2640    -1.7060     2.1310 nd         1 8YD      -0.513100
     12 N08         -6.0970    -1.7900     1.0940 na         1 8YD      -0.010100
     13 C09         -5.5640    -1.2680    -0.0360 ca         1 8YD      -0.044200
     14 C11         -5.2160    -0.5520    -2.2580 ca         1 8YD      -0.094000
     15 C12         -3.9190    -0.0820    -1.9380 ca         1 8YD      -0.076300
     16 C14         -1.8640     1.5500     0.0470 ca         1 8YD       0.110600
     17 F15         -2.8690     2.4210    -0.0100 f          1 8YD      -0.104900
     18 C16         -0.6000     2.0380     0.4400 ca         1 8YD       0.394600
     19 N17         -0.4790     3.3230     0.8440 nb         1 8YD      -0.696000
     20 C18          0.7000     3.6590     1.2850 ca         1 8YD       0.689900
     21 N19          1.8180     2.9210     1.2660 nb         1 8YD      -0.789000
     22 N21          2.9010     0.9810     0.6680 nh         1 8YD      -0.774300
     23 C23          5.0060     0.2670     1.6390 c6         1 8YD       0.090500
     24 N24          5.2970    -0.4940     0.4390 n          1 8YD      -0.489800
     25 C25          6.5720    -0.7720     0.0740 c          1 8YD       0.674100
     26 C27          8.2380    -1.8460    -1.5010 c3         1 8YD      -0.077100
     27 O28          7.5270    -0.3770     0.7290 o          1 8YD      -0.595100
     28 C29          4.1070    -0.9300    -0.2630 c6         1 8YD       0.090500
     29 C30          3.2190     0.2630    -0.5630 c6         1 8YD       0.191800
     30 C31          0.4740     1.1290     0.4450 ca         1 8YD      -0.265600
     31 C32          0.2410    -0.2370     0.2070 ca         1 8YD      -0.107000
     32 H101        -7.0350    -1.4960    -1.6190 ha         1 8YD       0.140000
     33 H132        -3.1470     1.6500    -2.9590 hc         1 8YD       0.044367
     34 H131        -2.0300     0.2960    -2.9230 hc         1 8YD       0.044367
     35 H133        -3.4210     0.2620    -4.0010 hc         1 8YD       0.044367
     36 H222         4.6380     2.1810     0.7090 h1         1 8YD       0.061950
     37 H221         3.8380     1.9460     2.2670 h1         1 8YD       0.061950
     38 H261         6.2540    -2.5560    -1.0650 hc         1 8YD       0.054700
     39 H262         6.2890    -1.1030    -2.0260 hc         1 8YD       0.054700
     40 H061        -3.3430    -0.9470     2.3660 h4         1 8YD       0.052800
     41 H081        -7.0040    -2.2100     1.2130 hn         1 8YD       0.326700
     42 H111        -5.5610    -0.4440    -3.2800 ha         1 8YD       0.133000
     43 H181         0.8080     4.6600     1.6860 h5         1 8YD       0.053100
     44 H232         5.9330     0.6200     2.0810 h1         1 8YD       0.063450
     45 H231         4.5110    -0.3830     2.3690 h1         1 8YD       0.063450
     46 H271         8.7480    -2.3650    -0.6920 hc         1 8YD       0.043367
     47 H273         8.3170    -2.4640    -2.3950 hc         1 8YD       0.043367
     48 H272         8.7710    -0.9160    -1.6930 hc         1 8YD       0.043367
     49 H291         4.3620    -1.4200    -1.1980 h1         1 8YD       0.063450
     50 H292         3.5610    -1.6540     0.3510 h1         1 8YD       0.063450
     51 H301         2.3210    -0.0630    -1.0790 h1         1 8YD       0.061950
     52 H302         3.7470     0.9440    -1.2420 h1         1 8YD       0.061950
     53 H321         1.0310    -0.9650     0.3210 ha         1 8YD       0.157000
     54 CL          -1.2970    -2.3330    -0.4290 cl         1 8YD      -0.083400
@<TRIPOS>BOND
     1     1    13 ar  
     2     1    14 ar  
     3     1    32 1   
     4     2    15 1   
     5     2    33 1   
     6     2    34 1   
     7     2    35 1   
     8     3    21 ar  
     9     3    22 1   
    10     3    30 ar  
    11     4    22 1   
    12     4    23 1   
    13     4    36 1   
    14     4    37 1   
    15     5    25 1   
    16     5    26 1   
    17     5    38 1   
    18     5    39 1   
    19     6     7 ar  
    20     6    31 ar  
    21     6    54 1   
    22     7     8 1   
    23     7    16 ar  
    24     8     9 ar  
    25     8    15 ar  
    26     9    10 1   
    27     9    13 ar  
    28    10    11 2   
    29    10    40 1   
    30    11    12 1   
    31    12    13 1   
    32    12    41 1   
    33    14    15 ar  
    34    14    42 1   
    35    16    17 1   
    36    16    18 ar  
    37    18    19 ar  
    38    18    30 ar  
    39    19    20 ar  
    40    20    21 ar  
    41    20    43 1   
    42    22    29 1   
    43    23    24 1   
    44    23    44 1   
    45    23    45 1   
    46    24    25 1   
    47    24    28 1   
    48    25    27 2   
    49    26    46 1   
    50    26    47 1   
    51    26    48 1   
    52    28    29 1   
    53    28    49 1   
    54    28    50 1   
    55    29    51 1   
    56    29    52 1   
    57    30    31 ar  
    58    31    53 1   
@<TRIPOS>SUBSTRUCTURE
     1 8YD         1 TEMP              0 ****  ****    0 ROOT
