@<TRIPOS>MOLECULE
8YD
   54    58     1     0     0
SMALL
No Charge or Current Charge


@<TRIPOS>ATOM
      1 C10         -6.0650    -1.4380    -1.0180 ca         1 8YD      -0.115000
      2 C13         -3.5560     0.7800    -2.9020 c3         1 8YD      -0.045800
      3 C20          1.6730     2.0110     0.5080 ca         1 8YD       0.392900
      4 C22          3.9860     1.5920     1.4050 c6         1 8YD       0.191800
      5 C26          6.9320    -1.8370    -0.9940 c3         1 8YD      -0.153400
      6 C02         -0.9750    -0.5180    -0.3190 ca         1 8YD       0.133000
      7 C03         -2.1380     0.2860    -0.2900 cp         1 8YD      -0.056000
      8 C04         -3.4830    -0.2960    -0.5690 cp         1 8YD       0.025000
      9 C05         -4.1280    -1.1060     0.3870 ca         1 8YD      -0.205900
     10 C06         -3.7550    -1.5530     1.7080 cc         1 8YD       0.356800
     11 N07         -4.6990    -2.3250     2.2710 nd         1 8YD      -0.513100
     12 N08         -5.6970    -2.3730     1.2900 na         1 8YD      -0.060400
     13 C09         -5.3570    -1.6470     0.1690 ca         1 8YD      -0.044200
     14 C11         -5.4590    -0.6370    -2.0070 ca         1 8YD      -0.076000
     15 C12         -4.1750    -0.0670    -1.7960 ca         1 8YD      -0.076300
     16 C14         -1.9980     1.6600     0.0220 ca         1 8YD       0.211000
     17 F15         -3.1040     2.4420     0.0760 f          1 8YD      -0.140000
     18 C16         -0.7360     2.2340     0.2900 ca         1 8YD       0.001000
     19 N17         -0.6170     3.5460     0.5980 nb         1 8YD      -0.170000
     20 C18          0.6200     4.0180     0.8490 ca         1 8YD       0.163900
     21 N19          1.7690     3.3180     0.8200 nb         1 8YD      -0.263000
     22 N21          2.8860     1.2900     0.4520 nh         1 8YD      -0.774300
     23 C23          4.9450     0.3810     1.5650 c6         1 8YD       0.090500
     24 N24          5.4120    -0.2470     0.2860 n          1 8YD      -0.422800
     25 C25          6.4820    -1.1720     0.3250 c          1 8YD       0.607100
     26 C27          8.1970    -2.7210    -0.9090 c3         1 8YD      -0.077100
     27 O28          7.0700    -1.3980     1.3760 o          1 8YD      -0.595100
     28 C29          4.3760    -0.3040    -0.7990 c6         1 8YD       0.090500
     29 C30          3.4300     0.9260    -0.8800 c6         1 8YD       0.191800
     30 C31          0.4170     1.4110     0.2400 ca         1 8YD      -0.135000
     31 C32          0.2860     0.0370    -0.0550 ca         1 8YD      -0.089000
     32 H101        -7.0480    -1.8780    -1.1760 ha         1 8YD       0.122000
     33 H132        -3.5930     1.8460    -2.6490 hc         1 8YD       0.044367
     34 H131        -2.5060     0.5100    -3.0680 hc         1 8YD       0.044367
     35 H133        -4.0790     0.6480    -3.8570 hc         1 8YD       0.044367
     36 H222         4.5640     2.4580     1.0510 h1         1 8YD       0.061950
     37 H221         3.5820     1.8490     2.3950 h1         1 8YD       0.061950
     38 H261         6.0840    -2.4030    -1.3960 hc         1 8YD       0.054700
     39 H262         7.0450    -1.0510    -1.7490 hc         1 8YD       0.054700
     40 H061        -2.8600    -1.3640     2.2860 h4         1 8YD       0.052800
     41 H081        -6.5610    -2.8960     1.4300 hn         1 8YD       0.377000
     42 H111        -5.9860    -0.4600    -2.9420 ha         1 8YD       0.115000
     43 H181         0.6980     5.0750     1.0980 h5         1 8YD       0.053100
     44 H232         5.8140     0.7090     2.1530 h1         1 8YD       0.063450
     45 H231         4.4300    -0.3890     2.1550 h1         1 8YD       0.063450
     46 H271         8.0450    -3.5520    -0.2090 hc         1 8YD       0.043367
     47 H273         8.4360    -3.1430    -1.8920 hc         1 8YD       0.043367
     48 H272         9.0590    -2.1340    -0.5700 hc         1 8YD       0.043367
     49 H291         4.8570    -0.4130    -1.7800 h1         1 8YD       0.063450
     50 H292         3.7630    -1.2020    -0.6390 h1         1 8YD       0.063450
     51 H301         2.6190     0.7020    -1.5880 h1         1 8YD       0.061950
     52 H302         3.9920     1.7760    -1.2960 h1         1 8YD       0.061950
     53 H321         1.1570    -0.6120    -0.0760 ha         1 8YD       0.139000
     54 Cl          -1.0650    -2.2380    -0.6980 cl         1 8YD      -0.175000
@<TRIPOS>BOND
     1     1    13 ar  
     2     1    14 ar  
     3     1    32 1   
     4     2    15 1   
     5     2    33 1   
     6     2    34 1   
     7     2    35 1   
     8     3    21 ar  
     9     3    22 1   
    10     3    30 ar  
    11     4    22 1   
    12     4    23 1   
    13     4    36 1   
    14     4    37 1   
    15     5    25 1   
    16     5    26 1   
    17     5    38 1   
    18     5    39 1   
    19     6     7 ar  
    20     6    31 ar  
    21     6    54 1   
    22     7     8 1   
    23     7    16 ar  
    24     8     9 ar  
    25     8    15 ar  
    26     9    10 1   
    27     9    13 ar  
    28    10    11 2   
    29    10    40 1   
    30    11    12 1   
    31    12    13 1   
    32    12    41 1   
    33    14    15 ar  
    34    14    42 1   
    35    16    17 1   
    36    16    18 ar  
    37    18    19 ar  
    38    18    30 ar  
    39    19    20 ar  
    40    20    21 ar  
    41    20    43 1   
    42    22    29 1   
    43    23    24 1   
    44    23    44 1   
    45    23    45 1   
    46    24    25 1   
    47    24    28 1   
    48    25    27 2   
    49    26    46 1   
    50    26    47 1   
    51    26    48 1   
    52    28    29 1   
    53    28    49 1   
    54    28    50 1   
    55    29    51 1   
    56    29    52 1   
    57    30    31 ar  
    58    31    53 1   
@<TRIPOS>SUBSTRUCTURE
     1 8YD         1 TEMP              0 ****  ****    0 ROOT
