@<TRIPOS>MOLECULE
8YE
   37    39     1     0     0
SMALL
abcg2


@<TRIPOS>ATOM
      1 CAA          7.7140     0.5700    -0.2480 c3         1 8YE      -0.091100
      2 CAB          6.1940     0.6000    -0.3150 c3         1 8YE      -0.072400
      3 CAC          5.5780    -0.5980     0.4140 c3         1 8YE      -0.121700
      4 CAD          4.0970    -0.6140     0.3710 cc         1 8YE       0.182300
      5 CAE          3.1900    -1.4240    -0.2250 cd         1 8YE      -0.203000
      6 OAH          3.4410     0.3550     1.0280 os         1 8YE      -0.054700
      7 NAG          2.1100     0.2100     0.8790 nc         1 8YE      -0.327300
      8 CAF          1.9500    -0.8440     0.1280 cd         1 8YE       0.210500
      9 CAI          0.6220    -1.4150    -0.1960 c          1 8YE       0.500400
     10 OAJ          0.5060    -2.6050    -0.3500 o          1 8YE      -0.506100
     11 NAK         -0.4730    -0.5650    -0.2970 n          1 8YE       0.056200
     12 CAL         -0.4450     0.8120    -0.4420 cc         1 8YE      -0.102000
     13 CAR         -1.7770    -1.0590    -0.3400 cc         1 8YE      -0.209000
     14 CAQ         -2.5640     0.0440    -0.4950 cd         1 8YE      -0.108000
     15 CAM         -1.7470     1.2090    -0.5650 cd         1 8YE      -0.177000
     16 CAN         -2.6850     2.2760    -0.7280 cd         1 8YE       0.279900
     17 NAO         -3.8990     1.8060    -0.7470 nc         1 8YE      -0.462800
     18 NAP         -3.8530     0.4600    -0.6330 na         1 8YE       0.062800
     19 CAS         -5.0570    -0.3030    -0.4450 c3         1 8YE       0.103600
     20 CAT         -5.4990    -0.3110     1.0120 c3         1 8YE       0.132600
     21 OAU         -6.6580    -1.1050     1.0970 oh         1 8YE      -0.662000
     22 H1           8.0650     0.6080     0.7850 hc         1 8YE       0.038033
     23 H2           8.1130    -0.3390    -0.7000 hc         1 8YE       0.038033
     24 H3           8.1450     1.4210    -0.7760 hc         1 8YE       0.038033
     25 H4           5.8240     1.5290     0.1220 hc         1 8YE       0.050700
     26 H5           5.8680     0.5930    -1.3580 hc         1 8YE       0.050700
     27 H6           5.9330    -1.5280    -0.0340 hc         1 8YE       0.069200
     28 H7           5.9080    -0.6050     1.4570 hc         1 8YE       0.069200
     29 H8           3.3720    -2.2950    -0.8300 ha         1 8YE       0.171000
     30 H9           0.4750     1.3660    -0.4650 h4         1 8YE       0.171000
     31 H10         -1.9920    -2.1070    -0.2320 h4         1 8YE       0.178000
     32 H11         -2.5070     3.3360    -0.8260 h4         1 8YE       0.044100
     33 H12         -5.8370     0.1190    -1.0790 h1         1 8YE       0.072700
     34 H13         -4.8680    -1.3220    -0.7870 h1         1 8YE       0.072700
     35 H14         -4.6850    -0.7040     1.6340 h1         1 8YE       0.030700
     36 H15         -5.6830     0.7220     1.3350 h1         1 8YE       0.030700
     37 H16         -6.9570    -1.1060     2.0110 ho         1 8YE       0.448000
@<TRIPOS>BOND
     1     1     2 1   
     2     1    22 1   
     3     1    23 1   
     4     1    24 1   
     5     2     3 1   
     6     2    25 1   
     7     2    26 1   
     8     3     4 1   
     9     3    27 1   
    10     3    28 1   
    11     4     5 2   
    12     4     6 1   
    13     5     8 1   
    14     5    29 1   
    15     6     7 1   
    16     7     8 2   
    17     8     9 1   
    18     9    10 2   
    19     9    11 1   
    20    11    12 1   
    21    11    13 1   
    22    12    15 2   
    23    12    30 1   
    24    13    14 2   
    25    13    31 1   
    26    14    15 1   
    27    14    18 1   
    28    15    16 1   
    29    16    17 2   
    30    16    32 1   
    31    17    18 1   
    32    18    19 1   
    33    19    20 1   
    34    19    33 1   
    35    19    34 1   
    36    20    21 1   
    37    20    35 1   
    38    20    36 1   
    39    21    37 1   
@<TRIPOS>SUBSTRUCTURE
     1 8YE         1 TEMP              0 ****  ****    0 ROOT
