@<TRIPOS>MOLECULE
8YE
   37    39     1     0     0
SMALL
No Charge or Current Charge


@<TRIPOS>ATOM
      1 CAA          7.9810    -0.0830    -0.4210 c3         1 8YE      -0.091100
      2 CAB          6.4620     0.1300    -0.5770 c3         1 8YE      -0.072400
      3 CAC          5.6490    -0.4180     0.6160 c3         1 8YE      -0.121700
      4 CAD          4.1690    -0.2160     0.4570 cc         1 8YE       0.182300
      5 CAE          3.1680    -1.0810     0.1570 cd         1 8YE      -0.203000
      6 OAH          3.6250     1.0270     0.6370 os         1 8YE      -0.054700
      7 NAG          2.1980     0.9330     0.4360 nc         1 8YE      -0.327300
      8 CAF          1.9620    -0.3410     0.1410 cd         1 8YE       0.210500
      9 CAI          0.6130    -0.9660    -0.1360 c          1 8YE       0.500400
     10 OAJ          0.5220    -2.1840    -0.2980 o          1 8YE      -0.506100
     11 NAK         -0.5670    -0.1530    -0.1970 n          1 8YE       0.056200
     12 CAL         -0.7020     1.2720    -0.2210 cc         1 8YE      -0.102000
     13 CAR         -1.8760    -0.6970    -0.3010 cc         1 8YE      -0.209000
     14 CAQ         -2.6980     0.3810    -0.3370 cd         1 8YE      -0.108000
     15 CAM         -2.0430     1.5270    -0.3030 cd         1 8YE      -0.177000
     16 CAN         -3.0000     2.5710    -0.4060 cd         1 8YE       0.279900
     17 NAO         -4.2530     2.0400    -0.5050 nc         1 8YE      -0.462800
     18 NAP         -4.0210     0.6500    -0.4650 na         1 8YE       0.062800
     19 CAS         -5.1170    -0.3280    -0.5580 c3         1 8YE       0.103600
     20 CAT         -5.4930    -0.9340     0.8100 c3         1 8YE       0.132600
     21 OAU         -6.5620    -1.8820     0.6630 oh         1 8YE      -0.662000
     22 H1           8.3540     0.4250     0.4770 hc         1 8YE       0.038033
     23 H2           8.2170    -1.1500    -0.3400 hc         1 8YE       0.038033
     24 H3           8.5140     0.3220    -1.2900 hc         1 8YE       0.038033
     25 H4           6.2620     1.2030    -0.6920 hc         1 8YE       0.050700
     26 H5           6.1260    -0.3580    -1.5010 hc         1 8YE       0.050700
     27 H6           5.8590    -1.4880     0.7360 hc         1 8YE       0.069200
     28 H7           5.9840     0.0710     1.5390 hc         1 8YE       0.069200
     29 H8           3.2770    -2.1420    -0.0350 ha         1 8YE       0.171000
     30 H9           0.1510     1.9310    -0.2220 h4         1 8YE       0.171000
     31 H10         -2.0260    -1.7700    -0.3350 h4         1 8YE       0.178000
     32 H11         -2.8500     3.6440    -0.4260 h4         1 8YE       0.044100
     33 H12         -5.9950     0.1660    -0.9910 h1         1 8YE       0.072700
     34 H13         -4.8070    -1.1300    -1.2390 h1         1 8YE       0.072700
     35 H14         -4.6080    -1.4220     1.2400 h1         1 8YE       0.030700
     36 H15         -5.7920    -0.1240     1.4890 h1         1 8YE       0.030700
     37 H16         -6.7630    -2.2340     1.5600 ho         1 8YE       0.448000
@<TRIPOS>BOND
     1     1     2 1   
     2     1    22 1   
     3     1    23 1   
     4     1    24 1   
     5     2     3 1   
     6     2    25 1   
     7     2    26 1   
     8     3     4 1   
     9     3    27 1   
    10     3    28 1   
    11     4     5 2   
    12     4     6 1   
    13     5     8 1   
    14     5    29 1   
    15     6     7 1   
    16     7     8 2   
    17     8     9 1   
    18     9    10 2   
    19     9    11 1   
    20    11    12 1   
    21    11    13 1   
    22    12    15 2   
    23    12    30 1   
    24    13    14 2   
    25    13    31 1   
    26    14    15 1   
    27    14    18 1   
    28    15    16 1   
    29    16    17 2   
    30    16    32 1   
    31    17    18 1   
    32    18    19 1   
    33    19    20 1   
    34    19    33 1   
    35    19    34 1   
    36    20    21 1   
    37    20    35 1   
    38    20    36 1   
    39    21    37 1   
@<TRIPOS>SUBSTRUCTURE
     1 8YE         1 TEMP              0 ****  ****    0 ROOT
