@<TRIPOS>MOLECULE
8YF
   38    38     1     0     0
SMALL
abcg2


@<TRIPOS>ATOM
      1 C62         -3.9260    -2.1420     2.0990 c3         1 8YF      -0.132100
      2 C61         -3.7700    -1.3360     0.8140 c3         1 8YF       0.195300
      3 O62         -4.3370    -0.0480     0.9720 oh         1 8YF      -0.621000
      4 C6          -2.2990    -1.2300     0.3860 c3         1 8YF      -0.208700
      5 C7          -2.1130    -0.9810    -1.1250 c          1 8YF       0.724000
      6 O71         -2.9100    -0.1990    -1.6800 o          1 8YF      -0.724500
      7 O72         -1.1770    -1.5950    -1.6810 o          1 8YF      -0.724500
      8 C5          -1.4880    -0.2320     1.2350 c5         1 8YF       0.202500
      9 C1           0.0360    -0.3800     1.0040 c5         1 8YF      -0.015200
     10 N4          -1.7460     1.1790     0.9260 nu         1 8YF      -0.744200
     11 C3          -0.7040     1.6240     0.1010 ce         1 8YF       0.069800
     12 C31         -0.8070     2.9230    -0.6320 c          1 8YF       0.726200
     13 O31          0.2060     3.2610    -1.2830 o          1 8YF      -0.729500
     14 O32         -1.8820     3.5480    -0.5350 o          1 8YF      -0.729500
     15 C2           0.3440     0.7900     0.1130 c2         1 8YF      -0.128600
     16 S21          1.8800     1.0670    -0.6790 ss         1 8YF      -0.224600
     17 C22          2.7720    -0.4670    -0.2800 c3         1 8YF      -0.029400
     18 C23          4.2200    -0.3030    -0.7350 c3         1 8YF       0.235800
     19 N24          5.0170    -1.4750    -0.4860 nu         1 8YF      -0.918400
     20 C25          5.5290    -1.7730     0.7270 c2         1 8YF       0.631100
     21 N26          5.4230    -1.0040     1.7410 n2         1 8YF      -0.850100
     22 H1          -3.5460    -3.1570     1.9710 hc         1 8YF       0.014367
     23 H2          -3.3930    -1.6850     2.9350 hc         1 8YF       0.014367
     24 H3          -4.9780    -2.2230     2.3830 hc         1 8YF       0.014367
     25 H4          -4.3060    -1.8820     0.0230 h1         1 8YF       0.021700
     26 H5          -5.2400    -0.1570     1.2870 ho         1 8YF       0.396000
     27 H6          -1.8660    -2.2120     0.6080 hc         1 8YF       0.020700
     28 H8          -1.7150    -0.4270     2.2870 h1         1 8YF       0.005700
     29 H9           0.5890    -0.3090     1.9470 hc         1 8YF       0.020200
     30 H10          0.2880    -1.3430     0.5590 hc         1 8YF       0.020200
     31 H11         -2.6590     1.3340     0.5240 hn         1 8YF       0.484000
     32 H13          2.7510    -0.6560     0.7930 h1         1 8YF       0.058700
     33 H14          2.3130    -1.3160    -0.7890 h1         1 8YF       0.058700
     34 H15          4.2570    -0.0900    -1.8040 h1         1 8YF       0.054200
     35 H16          4.6710     0.5470    -0.2200 h1         1 8YF       0.054200
     36 H17          6.0530    -2.7310     0.7320 h5         1 8YF      -0.066200
     37 H18          5.9180    -1.4120     2.5240 hn         1 8YF       0.353400
     38 H20          5.0420    -2.1890    -1.1920 hn         1 8YF       0.472000
@<TRIPOS>BOND
     1     1     2 1   
     2     1    22 1   
     3     1    23 1   
     4     1    24 1   
     5     2     3 1   
     6     2     4 1   
     7     2    25 1   
     8     3    26 1   
     9     4     5 1   
    10     4     8 1   
    11     4    27 1   
    12     5     6 1   
    13     5     7 1   
    14     8     9 1   
    15     8    10 1   
    16     8    28 1   
    17     9    15 1   
    18     9    29 1   
    19     9    30 1   
    20    10    11 1   
    21    10    31 1   
    22    11    12 1   
    23    11    15 2   
    24    12    13 1   
    25    12    14 1   
    26    15    16 1   
    27    16    17 1   
    28    17    18 1   
    29    17    32 1   
    30    17    33 1   
    31    18    19 1   
    32    18    34 1   
    33    18    35 1   
    34    19    20 1   
    35    19    38 1   
    36    20    21 2   
    37    20    36 1   
    38    21    37 1   
@<TRIPOS>SUBSTRUCTURE
     1 8YF         1 TEMP              0 ****  ****    0 ROOT
