@<TRIPOS>MOLECULE
8YF
   38    38     1     0     0
SMALL
No Charge or Current Charge


@<TRIPOS>ATOM
      1 C62         -4.2410    -1.8840     2.0880 c3         1 8YF      -0.132100
      2 C61         -3.8650    -1.3260     0.6980 c3         1 8YF       0.195300
      3 O62         -4.4290    -0.0160     0.5760 oh         1 8YF      -0.621000
      4 C6          -2.3330    -1.3310     0.4270 c3         1 8YF      -0.208700
      5 C7          -2.0200    -1.2510    -1.0850 c          1 8YF       0.724000
      6 O71         -2.3660    -0.2730    -1.7330 o          1 8YF      -0.724500
      7 O72         -1.4950    -2.2280    -1.6020 o          1 8YF      -0.724500
      8 C5          -1.4660    -0.3830     1.3100 c5         1 8YF       0.202500
      9 C1           0.0810    -0.4240     1.0450 c5         1 8YF      -0.015200
     10 N4          -1.7810     1.0450     1.0930 nu         1 8YF      -0.744200
     11 C3          -0.7240     1.5950     0.3190 ce         1 8YF       0.069800
     12 C31         -0.9730     2.9520    -0.3870 c          1 8YF       0.726200
     13 O31         -0.0970     3.4710    -1.0700 o          1 8YF      -0.729500
     14 O32         -2.0640     3.4950    -0.2300 o          1 8YF      -0.729500
     15 C2           0.3780     0.8210     0.2380 c2         1 8YF      -0.128600
     16 S21          1.9200     1.1190    -0.6370 ss         1 8YF      -0.224600
     17 C22          2.9380    -0.3710    -0.2250 c3         1 8YF      -0.029400
     18 C23          4.3430    -0.2660    -0.8530 c3         1 8YF       0.235800
     19 N24          5.1490    -1.4710    -0.5750 nu         1 8YF      -0.918400
     20 C25          5.7190    -1.7950     0.6290 c2         1 8YF       0.631100
     21 N26          5.8500    -0.9090     1.5320 n2         1 8YF      -0.850100
     22 H1          -3.8430    -2.8970     2.2190 hc         1 8YF       0.014367
     23 H2          -3.8460    -1.2510     2.8920 hc         1 8YF       0.014367
     24 H3          -5.3310    -1.9360     2.2000 hc         1 8YF       0.014367
     25 H4          -4.3290    -1.9880    -0.0470 h1         1 8YF       0.021700
     26 H5          -5.3930    -0.1110     0.7220 ho         1 8YF       0.396000
     27 H6          -2.0020    -2.3340     0.7230 hc         1 8YF       0.020700
     28 H8          -1.6520    -0.6570     2.3580 h1         1 8YF       0.005700
     29 H9           0.6380    -0.3980     1.9890 hc         1 8YF       0.020200
     30 H10          0.3800    -1.3400     0.5250 hc         1 8YF       0.020200
     31 H11         -2.7260     1.2930     0.7800 hn         1 8YF       0.484000
     32 H13          3.0250    -0.4530     0.8650 h1         1 8YF       0.058700
     33 H14          2.4320    -1.2660    -0.6080 h1         1 8YF       0.058700
     34 H15          4.2290    -0.1450    -1.9390 h1         1 8YF       0.054200
     35 H16          4.8480     0.6350    -0.4770 h1         1 8YF       0.054200
     36 H17          6.0760    -2.8200     0.7170 h5         1 8YF      -0.066200
     37 H18          6.3180    -1.3460     2.3370 hn         1 8YF       0.353400
     38 H20          5.0990    -2.2370    -1.2440 hn         1 8YF       0.472000
@<TRIPOS>BOND
     1     1     2 1   
     2     1    22 1   
     3     1    23 1   
     4     1    24 1   
     5     2     3 1   
     6     2     4 1   
     7     2    25 1   
     8     3    26 1   
     9     4     5 1   
    10     4     8 1   
    11     4    27 1   
    12     5     6 1   
    13     5     7 1   
    14     8     9 1   
    15     8    10 1   
    16     8    28 1   
    17     9    15 1   
    18     9    29 1   
    19     9    30 1   
    20    10    11 1   
    21    10    31 1   
    22    11    12 1   
    23    11    15 2   
    24    12    13 1   
    25    12    14 1   
    26    15    16 1   
    27    16    17 1   
    28    17    18 1   
    29    17    32 1   
    30    17    33 1   
    31    18    19 1   
    32    18    34 1   
    33    18    35 1   
    34    19    20 1   
    35    19    38 1   
    36    20    21 2   
    37    20    36 1   
    38    21    37 1   
@<TRIPOS>SUBSTRUCTURE
     1 8YF         1 TEMP              0 ****  ****    0 ROOT
