@<TRIPOS>MOLECULE
8YH
   36    36     1     0     0
SMALL
No Charge or Current Charge


@<TRIPOS>ATOM
      1 CAE         -1.2190    -0.9440    -0.2160 c6         1 8YH       0.095000
      2 CAH         -2.5880    -1.5920     0.0980 c6         1 8YH      -0.104900
      3 CAI         -3.7640    -0.6680    -0.2730 c6         1 8YH      -0.060700
      4 CAK         -5.1330    -1.3410     0.0070 c3         1 8YH      -0.086100
      5 CAG         -3.6030     0.6470     0.5120 c6         1 8YH      -0.104900
      6 CAD         -2.2600     1.3430     0.1950 c6         1 8YH       0.095000
      7 NAB         -1.0480     0.4690     0.2570 n          1 8YH      -0.404800
      8 CAA          0.2250     1.0740     0.3190 c          1 8YH       0.638100
      9 OAC          0.3700     2.2720     0.5140 o          1 8YH      -0.641100
     10 NAF          1.3050     0.2420     0.1490 ns         1 8YH      -0.504900
     11 CAJ          2.6990     0.6800     0.1780 c3         1 8YH       0.102000
     12 CAL          3.6670    -0.4930    -0.0680 c3         1 8YH      -0.092400
     13 CAM          5.1500    -0.0620    -0.0440 c3         1 8YH      -0.073400
     14 CAN          6.1220    -1.2330    -0.2890 c3         1 8YH      -0.089100
     15 H1          -0.4440    -1.5850     0.2270 h1         1 8YH       0.054450
     16 H2          -2.6690    -2.5470    -0.4390 hc         1 8YH       0.050950
     17 H3          -5.2480    -1.5890     1.0690 hc         1 8YH       0.034367
     18 H4          -5.9630    -0.6810    -0.2730 hc         1 8YH       0.034367
     19 H5          -5.2420    -2.2700    -0.5660 hc         1 8YH       0.034367
     20 H6          -4.4300     1.3320     0.2810 hc         1 8YH       0.050950
     21 H7          -2.3170     1.7680    -0.8180 h1         1 8YH       0.054450
     22 H8           1.1100    -0.7370    -0.0040 hn         1 8YH       0.299500
     23 H9           2.8460     1.4470    -0.5940 h1         1 8YH       0.050700
     24 H10          2.9080     1.1320     1.1580 h1         1 8YH       0.050700
     25 H11          3.5020    -1.2610     0.6980 hc         1 8YH       0.041700
     26 H12          3.4390    -0.9490    -1.0390 hc         1 8YH       0.041700
     27 H13          5.3180     0.7070    -0.8080 hc         1 8YH       0.041200
     28 H14          5.3800     0.3950     0.9270 hc         1 8YH       0.041200
     29 H15          6.0030    -2.0050     0.4810 hc         1 8YH       0.033033
     30 H16          5.9390    -1.6900    -1.2700 hc         1 8YH       0.033033
     31 H17          7.1600    -0.8800    -0.2630 hc         1 8YH       0.033033
     32 H18         -1.0660    -0.9570    -1.3050 h1         1 8YH       0.054450
     33 H19         -2.6330    -1.8350     1.1690 hc         1 8YH       0.050950
     34 H20         -3.7310    -0.4540    -1.3510 hc         1 8YH       0.042700
     35 H21         -3.6590     0.4450     1.5910 hc         1 8YH       0.050950
     36 H22         -2.1400     2.1880     0.8880 h1         1 8YH       0.054450
@<TRIPOS>BOND
     1     1     2 1   
     2     1     7 1   
     3     1    15 1   
     4     1    32 1   
     5     2     3 1   
     6     2    16 1   
     7     2    33 1   
     8     3     4 1   
     9     3     5 1   
    10     3    34 1   
    11     4    17 1   
    12     4    18 1   
    13     4    19 1   
    14     5     6 1   
    15     5    20 1   
    16     5    35 1   
    17     6     7 1   
    18     6    21 1   
    19     6    36 1   
    20     7     8 1   
    21     8     9 2   
    22     8    10 1   
    23    10    11 1   
    24    10    22 1   
    25    11    12 1   
    26    11    23 1   
    27    11    24 1   
    28    12    13 1   
    29    12    25 1   
    30    12    26 1   
    31    13    14 1   
    32    13    27 1   
    33    13    28 1   
    34    14    29 1   
    35    14    30 1   
    36    14    31 1   
@<TRIPOS>SUBSTRUCTURE
     1 8YH         1 TEMP              0 ****  ****    0 ROOT
