@<TRIPOS>MOLECULE
8YH
   36    36     1     0     0
SMALL
bcc


@<TRIPOS>ATOM
      1 CAE         -1.4250    -0.5740    -1.3940 c6         1 8YH       0.095000
      2 CAH         -2.2070    -1.4260    -0.4010 c6         1 8YH      -0.104900
      3 CAI         -3.4900    -0.7250     0.0460 c6         1 8YH      -0.060700
      4 CAK         -4.2290    -1.5270     1.1070 c3         1 8YH      -0.086100
      5 CAG         -3.1740     0.6910     0.5270 c6         1 8YH      -0.104900
      6 CAD         -2.3570     1.4590    -0.5050 c6         1 8YH       0.095000
      7 NAB         -1.1380     0.7420    -0.8440 n          1 8YH      -0.471800
      8 CAA          0.0060     1.0440    -0.1510 c          1 8YH       0.772100
      9 OAC          0.0660     1.9930     0.6260 o          1 8YH      -0.641100
     10 NAF          1.0860     0.2450    -0.3720 ns         1 8YH      -0.571900
     11 CAJ          2.3850     0.5950     0.1640 c3         1 8YH       0.102000
     12 CAL          3.3570    -0.5640     0.0120 c3         1 8YH      -0.092400
     13 CAM          4.7490    -0.2120     0.5240 c3         1 8YH      -0.073400
     14 CAN          5.7320    -1.3660     0.3950 c3         1 8YH      -0.089100
     15 H1          -0.5190    -1.0880    -1.7100 h1         1 8YH       0.054450
     16 H2          -2.4430    -2.3900    -0.8600 hc         1 8YH       0.050950
     17 H3          -3.6220    -1.6410     2.0070 hc         1 8YH       0.034367
     18 H4          -5.1590    -1.0340     1.3970 hc         1 8YH       0.034367
     19 H5          -4.4810    -2.5260     0.7470 hc         1 8YH       0.034367
     20 H6          -4.1010     1.2320     0.7390 hc         1 8YH       0.050950
     21 H7          -2.9390     1.5760    -1.4240 h1         1 8YH       0.054450
     22 H8           1.1070    -0.3150    -1.2080 hn         1 8YH       0.299500
     23 H9           2.7940     1.4850    -0.3300 h1         1 8YH       0.050700
     24 H10          2.2790     0.8430     1.2200 h1         1 8YH       0.050700
     25 H11          2.9730    -1.4340     0.5520 hc         1 8YH       0.041700
     26 H12          3.4240    -0.8560    -1.0420 hc         1 8YH       0.041700
     27 H13          5.1270     0.6560    -0.0240 hc         1 8YH       0.041200
     28 H14          4.6820     0.0950     1.5710 hc         1 8YH       0.041200
     29 H15          5.3930    -2.2400     0.9550 hc         1 8YH       0.033033
     30 H16          5.8520    -1.6700    -0.6470 hc         1 8YH       0.033033
     31 H17          6.7180    -1.0940     0.7740 hc         1 8YH       0.033033
     32 H18         -2.0150    -0.4330    -2.3040 h1         1 8YH       0.054450
     33 H19         -1.5750    -1.6350     0.4700 hc         1 8YH       0.050950
     34 H20         -4.1420    -0.6400    -0.8330 hc         1 8YH       0.042700
     35 H21         -2.6130     0.6440     1.4670 hc         1 8YH       0.050950
     36 H22         -2.1130     2.4580    -0.1530 h1         1 8YH       0.054450
@<TRIPOS>BOND
     1     1     2 1   
     2     1     7 1   
     3     1    15 1   
     4     1    32 1   
     5     2     3 1   
     6     2    16 1   
     7     2    33 1   
     8     3     4 1   
     9     3     5 1   
    10     3    34 1   
    11     4    17 1   
    12     4    18 1   
    13     4    19 1   
    14     5     6 1   
    15     5    20 1   
    16     5    35 1   
    17     6     7 1   
    18     6    21 1   
    19     6    36 1   
    20     7     8 1   
    21     8     9 2   
    22     8    10 1   
    23    10    11 1   
    24    10    22 1   
    25    11    12 1   
    26    11    23 1   
    27    11    24 1   
    28    12    13 1   
    29    12    25 1   
    30    12    26 1   
    31    13    14 1   
    32    13    27 1   
    33    13    28 1   
    34    14    29 1   
    35    14    30 1   
    36    14    31 1   
@<TRIPOS>SUBSTRUCTURE
     1 8YH         1 TEMP              0 ****  ****    0 ROOT
