@<TRIPOS>MOLECULE
8YI
   25    26     1     0     0
SMALL
No Charge or Current Charge


@<TRIPOS>ATOM
      1 C10         -3.3280   -14.4160    14.2860 cc         1 8YI      -0.159300
      2 N12         -1.3640   -13.5850    15.0460 nd         1 8YI      -0.685000
      3 C13         -2.3140   -12.6840    15.2490 cc         1 8YI       0.353400
      4 C02         -6.1330   -14.9340    15.5840 c          1 8YI       0.723000
      5 C03         -5.3320   -15.9420    14.7290 c3         1 8YI      -0.073700
      6 C05         -7.2480   -16.6540    13.2050 cc         1 8YI      -0.193000
      7 C06         -7.8220   -17.8550    12.8900 cd         1 8YI      -0.220500
      8 C07         -7.1650   -18.8720    13.6030 cd         1 8YI      -0.220500
      9 C08         -6.1780   -18.3120    14.3660 cc         1 8YI      -0.193000
     10 C09         -4.4040   -15.2790    13.6780 c3         1 8YI      -0.001100
     11 C11         -1.9870   -14.6650    14.4450 cd         1 8YI       0.239900
     12 N04         -6.2310   -16.9370    14.1220 na         1 8YI       0.075000
     13 N14         -3.5220   -13.1510    14.7960 na         1 8YI      -0.310500
     14 H2          -2.1960   -11.7070    15.7030 h5         1 8YI       0.033100
     15 H3          -4.6820   -16.4840    15.4270 h1         1 8YI       0.055700
     16 H4          -7.4690   -15.6490    12.8660 h4         1 8YI       0.145000
     17 H5          -8.6490   -17.9960    12.2010 ha         1 8YI       0.105500
     18 H6          -7.4000   -19.9320    13.5570 ha         1 8YI       0.105500
     19 H7          -5.4620   -18.7600    15.0440 h4         1 8YI       0.145000
     20 H8          -5.0020   -14.6880    12.9740 hc         1 8YI       0.044700
     21 H9          -3.9300   -16.0690    13.0820 hc         1 8YI       0.044700
     22 H10         -1.4390   -15.5570    14.1620 h4         1 8YI       0.060100
     23 H11         -4.4010   -12.6480    14.8450 hn         1 8YI       0.335000
     24 O01         -6.2620   -15.1760    16.7760 o          1 8YI      -0.705000
     25 O15         -6.5850   -13.9260    15.0540 o          1 8YI      -0.705000
@<TRIPOS>BOND
     1     1    10 1   
     2     1    11 2   
     3     1    13 1   
     4     2     3 2   
     5     2    11 1   
     6     3    13 1   
     7     3    14 1   
     8     4     5 1   
     9     4    24 1   
    10     4    25 1   
    11     5    10 1   
    12     5    12 1   
    13     5    15 1   
    14     6     7 2   
    15     6    12 1   
    16     6    16 1   
    17     7     8 1   
    18     7    17 1   
    19     8     9 2   
    20     8    18 1   
    21     9    12 1   
    22     9    19 1   
    23    10    20 1   
    24    10    21 1   
    25    11    22 1   
    26    13    23 1   
@<TRIPOS>SUBSTRUCTURE
     1 8YI         1 TEMP              0 ****  ****    0 ROOT
