@<TRIPOS>MOLECULE
8YI
   25    26     1     0     0
SMALL
abcg2


@<TRIPOS>ATOM
      1 C10         -3.5790   -14.2410    14.4290 cc         1 8YI      -0.159300
      2 N12         -1.9740   -13.3380    15.7290 nd         1 8YI      -0.685000
      3 C13         -2.0430   -12.6760    14.6040 cc         1 8YI       0.353400
      4 C02         -5.8800   -15.5210    16.0400 c          1 8YI       0.723000
      5 C03         -5.1940   -16.1140    14.7730 c3         1 8YI      -0.073700
      6 C05         -7.3480   -16.6250    13.5920 cc         1 8YI      -0.193000
      7 C06         -7.9190   -17.7240    12.9970 cd         1 8YI      -0.220500
      8 C07         -7.0070   -18.7990    13.1420 cd         1 8YI      -0.220500
      9 C08         -5.9160   -18.3070    13.8170 cc         1 8YI      -0.193000
     10 C09         -4.6680   -15.0510    13.8160 c3         1 8YI      -0.001100
     11 C11         -2.9260   -14.3160    15.6310 cd         1 8YI       0.239900
     12 N04         -6.1320   -16.9890    14.0860 na         1 8YI       0.075000
     13 N14         -2.9930   -13.1830    13.7910 na         1 8YI      -0.310500
     14 H2          -1.4360   -11.8280    14.3240 h5         1 8YI       0.033100
     15 H3          -4.3650   -16.7520    15.0860 h1         1 8YI       0.055700
     16 H4          -7.7170   -15.6190    13.7050 h4         1 8YI       0.145000
     17 H5          -8.8860   -17.7510    12.5170 ha         1 8YI       0.105500
     18 H6          -7.1330   -19.8120    12.7960 ha         1 8YI       0.105500
     19 H7          -5.0040   -18.7910    14.1260 h4         1 8YI       0.145000
     20 H8          -5.4900   -14.3990    13.5110 hc         1 8YI       0.044700
     21 H9          -4.3000   -15.5390    12.9090 hc         1 8YI       0.044700
     22 H10         -3.1040   -15.0170    16.4320 h4         1 8YI       0.060100
     23 H11         -3.2310   -12.8380    12.8730 hn         1 8YI       0.335000
     24 O01         -5.6840   -16.1420    17.0990 o          1 8YI      -0.705000
     25 O15         -6.5770   -14.5060    15.8640 o          1 8YI      -0.705000
@<TRIPOS>BOND
     1     1    10 1   
     2     1    11 2   
     3     1    13 1   
     4     2     3 2   
     5     2    11 1   
     6     3    13 1   
     7     3    14 1   
     8     4     5 1   
     9     4    24 1   
    10     4    25 1   
    11     5    10 1   
    12     5    12 1   
    13     5    15 1   
    14     6     7 2   
    15     6    12 1   
    16     6    16 1   
    17     7     8 1   
    18     7    17 1   
    19     8     9 2   
    20     8    18 1   
    21     9    12 1   
    22     9    19 1   
    23    10    20 1   
    24    10    21 1   
    25    11    22 1   
    26    13    23 1   
@<TRIPOS>SUBSTRUCTURE
     1 8YI         1 TEMP              0 ****  ****    0 ROOT
