@<TRIPOS>MOLECULE
8YJ
   30    31     1     0     0
SMALL
abcg2


@<TRIPOS>ATOM
      1 CAA          3.4700    -0.5130     0.7320 ca         1 8YJ      -0.128600
      2 CAB          4.5740    -1.3590     0.6640 ca         1 8YJ      -0.076000
      3 CAC          4.6300    -2.4270    -0.2150 ca         1 8YJ      -0.149000
      4 CAD          3.5500    -2.6590    -1.0520 ca         1 8YJ      -0.123000
      5 CAE          2.4390    -1.8310    -1.0080 ca         1 8YJ      -0.158000
      6 CAF          2.3810    -0.7500    -0.1240 ca         1 8YJ      -0.079000
      7 CAH         -0.0600    -0.3710    -1.4130 c3         1 8YJ      -0.148400
      8 CAI         -1.2600     0.5380    -1.5540 c          1 8YJ       0.606700
      9 CAJ         -2.3410     0.4560    -0.5380 ca         1 8YJ      -0.160600
     10 CAK         -3.4390     1.3110    -0.6490 ca         1 8YJ      -0.048000
     11 CAL         -4.4700     1.2680     0.2700 ca         1 8YJ      -0.125500
     12 CAM         -4.4010     0.3590     1.3170 ca         1 8YJ       0.137000
     13 CAN         -3.3230    -0.5020     1.4530 ca         1 8YJ      -0.125500
     14 CAO         -2.2970    -0.4480     0.5230 ca         1 8YJ      -0.048000
     15 CAP          3.4850     0.6290     1.7300 c          1 8YJ       0.711600
     16 OAQ          4.5110     0.7870     2.4130 o          1 8YJ      -0.696500
     17 OAR          2.4440     1.3170     1.7770 o          1 8YJ      -0.696500
     18 OAS         -1.3280     1.3250    -2.4730 o          1 8YJ      -0.536100
     19 SAG          0.9680     0.3210    -0.0630 ss         1 8YJ       0.004000
     20 CLA         -5.6830     0.2990     2.4730 cl         1 8YJ      -0.220000
     21 H1           5.4060    -1.1610     1.3270 ha         1 8YJ       0.132000
     22 H2           5.5000    -3.0680    -0.2460 ha         1 8YJ       0.091000
     23 H3           3.5620    -3.4880    -1.7480 ha         1 8YJ       0.084000
     24 H4           1.6230    -2.0510    -1.6810 ha         1 8YJ       0.090000
     25 H5          -0.3720    -1.3940    -1.1920 h1         1 8YJ       0.070200
     26 H6           0.4830    -0.3630    -2.3580 h1         1 8YJ       0.070200
     27 H7          -3.4920     2.0210    -1.4640 ha         1 8YJ       0.136500
     28 H8          -5.3170     1.9330     0.1750 ha         1 8YJ       0.125500
     29 H9          -3.2800    -1.2060     2.2720 ha         1 8YJ       0.125500
     30 H10         -1.4620    -1.1230     0.6480 ha         1 8YJ       0.136500
@<TRIPOS>BOND
     1     1     2 ar  
     2     1     6 ar  
     3     1    15 1   
     4     2     3 ar  
     5     2    21 1   
     6     3     4 ar  
     7     3    22 1   
     8     4     5 ar  
     9     4    23 1   
    10     5     6 ar  
    11     5    24 1   
    12     6    19 1   
    13     7     8 1   
    14     7    19 1   
    15     7    25 1   
    16     7    26 1   
    17     8     9 1   
    18     8    18 2   
    19     9    10 ar  
    20     9    14 ar  
    21    10    11 ar  
    22    10    27 1   
    23    11    12 ar  
    24    11    28 1   
    25    12    13 ar  
    26    12    20 1   
    27    13    14 ar  
    28    13    29 1   
    29    14    30 1   
    30    15    16 1   
    31    15    17 1   
@<TRIPOS>SUBSTRUCTURE
     1 8YJ         1 TEMP              0 ****  ****    0 ROOT
