@<TRIPOS>MOLECULE
8YJ
   30    31     1     0     0
SMALL
No Charge or Current Charge


@<TRIPOS>ATOM
      1 CAA          3.3230    -0.6240     0.7830 ca         1 8YJ      -0.128600
      2 CAB          4.3670    -1.5610     0.9320 ca         1 8YJ      -0.076000
      3 CAC          4.5790    -2.5550    -0.0380 ca         1 8YJ      -0.149000
      4 CAD          3.7520    -2.6160    -1.1680 ca         1 8YJ      -0.123000
      5 CAE          2.7140    -1.6850    -1.3310 ca         1 8YJ      -0.158000
      6 CAF          2.4870    -0.6860    -0.3610 ca         1 8YJ      -0.079000
      7 CAH         -0.0780    -0.3070    -1.6440 c3         1 8YJ      -0.148400
      8 CAI         -1.3580     0.5290    -1.7280 c          1 8YJ       0.606700
      9 CAJ         -2.3580     0.4930    -0.5860 ca         1 8YJ      -0.160600
     10 CAK         -3.5850     1.1870    -0.7120 ca         1 8YJ      -0.048000
     11 CAL         -4.5280     1.1700     0.3310 ca         1 8YJ      -0.125500
     12 CAM         -4.2590     0.4630     1.5110 ca         1 8YJ       0.137000
     13 CAN         -3.0470    -0.2280     1.6530 ca         1 8YJ      -0.125500
     14 CAO         -2.1000    -0.2160     0.6140 ca         1 8YJ      -0.048000
     15 CAP          3.1290     0.4220     1.8540 c          1 8YJ       0.711600
     16 OAQ          4.0340     1.2230     2.0380 o          1 8YJ      -0.696500
     17 OAR          2.1230     0.3640     2.5470 o          1 8YJ      -0.696500
     18 OAS         -1.5620     1.2220    -2.7180 o          1 8YJ      -0.536100
     19 SAG          1.1800     0.5320    -0.5830 ss         1 8YJ       0.004000
     20 ClA         -5.4400     0.4440     2.8140 cl         1 8YJ      -0.220000
     21 H1           5.0130    -1.5170     1.8070 ha         1 8YJ       0.132000
     22 H2           5.3850    -3.2740     0.0870 ha         1 8YJ       0.091000
     23 H3           3.9190    -3.3820    -1.9220 ha         1 8YJ       0.084000
     24 H4           2.1010    -1.7430    -2.2250 ha         1 8YJ       0.090000
     25 H5          -0.3170    -1.2950    -1.2360 h1         1 8YJ       0.070200
     26 H6           0.3220    -0.4280    -2.6570 h1         1 8YJ       0.070200
     27 H7          -3.8160     1.7420    -1.6190 ha         1 8YJ       0.136500
     28 H8          -5.4680     1.7060     0.2230 ha         1 8YJ       0.125500
     29 H9          -2.8400    -0.7730     2.5700 ha         1 8YJ       0.125500
     30 H10         -1.1690    -0.7580     0.7620 ha         1 8YJ       0.136500
@<TRIPOS>BOND
     1     1     2 ar  
     2     1     6 ar  
     3     1    15 1   
     4     2     3 ar  
     5     2    21 1   
     6     3     4 ar  
     7     3    22 1   
     8     4     5 ar  
     9     4    23 1   
    10     5     6 ar  
    11     5    24 1   
    12     6    19 1   
    13     7     8 1   
    14     7    19 1   
    15     7    25 1   
    16     7    26 1   
    17     8     9 1   
    18     8    18 2   
    19     9    10 ar  
    20     9    14 ar  
    21    10    11 ar  
    22    10    27 1   
    23    11    12 ar  
    24    11    28 1   
    25    12    13 ar  
    26    12    20 1   
    27    13    14 ar  
    28    13    29 1   
    29    14    30 1   
    30    15    16 1   
    31    15    17 1   
@<TRIPOS>SUBSTRUCTURE
     1 8YJ         1 TEMP              0 ****  ****    0 ROOT
