@<TRIPOS>MOLECULE
8YM
   30    31     1     0     0
SMALL
abcg2


@<TRIPOS>ATOM
      1 C5           1.2710    -2.7410    -0.0550 ca         1 8YM      -0.077000
      2 C4           2.6560    -2.6390    -0.0700 ca         1 8YM      -0.164000
      3 C2           2.4550    -0.2250     0.1040 ca         1 8YM      -0.196600
      4 C6           0.4810    -1.6110     0.0370 ca         1 8YM      -0.104000
      5 C            4.6260     1.1540     0.2110 c3         1 8YM      -0.189100
      6 O            2.4610     2.1150     0.1900 o          1 8YM      -0.521100
      7 C1           3.1210     1.0930     0.1700 c          1 8YM       0.575700
      8 C10         -3.3260    -0.3070     2.0090 ca         1 8YM      -0.162000
      9 C11         -4.1960    -0.4780     0.9410 ca         1 8YM      -0.112000
     10 C12         -3.7720    -0.1940    -0.3480 ca         1 8YM      -0.109000
     11 C13         -2.4680     0.2250    -0.6130 ca         1 8YM      -0.068600
     12 C14         -2.0620     0.4520    -2.0640 c          1 8YM       0.713600
     13 C3           3.2300    -1.3870     0.0070 ca         1 8YM      -0.070000
     14 C7           1.0480    -0.3380     0.1280 ca         1 8YM      -0.012000
     15 C8          -1.6000     0.3880     0.4700 ca         1 8YM      -0.168000
     16 C9          -2.0370     0.1420     1.7700 ca         1 8YM      -0.087000
     17 O1          -2.8980     1.0450    -2.7720 o          1 8YM      -0.703500
     18 O2          -0.9590    -0.0010    -2.4090 o          1 8YM      -0.703500
     19 S            0.0250     1.0900     0.2840 ss         1 8YM       0.181000
     20 H1           0.7950    -3.7120    -0.1210 ha         1 8YM       0.100000
     21 H2           3.2770    -3.5210    -0.1450 ha         1 8YM       0.097000
     22 H3          -0.5920    -1.7250     0.0410 ha         1 8YM       0.140000
     23 H4           5.0230     0.5900     1.0560 hc         1 8YM       0.050033
     24 H5           5.0620     0.7300    -0.6940 hc         1 8YM       0.050033
     25 H6           4.9480     2.1890     0.2980 hc         1 8YM       0.050033
     26 H7          -3.6500    -0.5100     3.0210 ha         1 8YM       0.088000
     27 H8          -5.2080    -0.8220     1.1140 ha         1 8YM       0.088000
     28 H9          -4.4640    -0.3070    -1.1730 ha         1 8YM       0.124000
     29 H10          4.3080    -1.3090    -0.0080 ha         1 8YM       0.092000
     30 H11         -1.3570     0.3020     2.5980 ha         1 8YM       0.100000
@<TRIPOS>BOND
     1     1     2 ar  
     2     1     4 ar  
     3     1    20 1   
     4     2    13 ar  
     5     2    21 1   
     6     3     7 1   
     7     3    13 ar  
     8     3    14 ar  
     9     4    14 ar  
    10     4    22 1   
    11     5     7 1   
    12     5    23 1   
    13     5    24 1   
    14     5    25 1   
    15     6     7 2   
    16     8     9 ar  
    17     8    16 ar  
    18     8    26 1   
    19     9    10 ar  
    20     9    27 1   
    21    10    11 ar  
    22    10    28 1   
    23    11    12 1   
    24    11    15 ar  
    25    12    17 1   
    26    12    18 1   
    27    13    29 1   
    28    14    19 1   
    29    15    16 ar  
    30    15    19 1   
    31    16    30 1   
@<TRIPOS>SUBSTRUCTURE
     1 8YM         1 TEMP              0 ****  ****    0 ROOT
