@<TRIPOS>MOLECULE
8YM
   30    31     1     0     0
SMALL
No Charge or Current Charge


@<TRIPOS>ATOM
      1 C5           1.4200    -2.9610    -0.2130 ca         1 8YM      -0.077000
      2 C4           2.6710    -2.7700     0.3900 ca         1 8YM      -0.164000
      3 C2           2.3740    -0.3400     0.2840 ca         1 8YM      -0.196600
      4 C6           0.6450    -1.8490    -0.5730 ca         1 8YM      -0.104000
      5 C            4.4150     1.2920     0.3750 c3         1 8YM      -0.189100
      6 O            2.2010     1.9480     0.9810 o          1 8YM      -0.521100
      7 C1           2.9180     1.0430     0.5750 c          1 8YM       0.575700
      8 C10         -2.6810    -0.2020     1.9630 ca         1 8YM      -0.162000
      9 C11         -3.8820    -0.2600     1.2410 ca         1 8YM      -0.112000
     10 C12         -3.8860     0.0040    -0.1390 ca         1 8YM      -0.109000
     11 C13         -2.6880     0.3230    -0.8170 ca         1 8YM      -0.068600
     12 C14         -2.7390     0.5930    -2.3080 c          1 8YM       0.713600
     13 C3           3.1460    -1.4720     0.6340 ca         1 8YM      -0.070000
     14 C7           1.1060    -0.5400    -0.3300 ca         1 8YM      -0.012000
     15 C8          -1.4770     0.3840    -0.0780 ca         1 8YM      -0.168000
     16 C9          -1.4830     0.1220     1.3070 ca         1 8YM      -0.087000
     17 O1          -3.5160     1.4490    -2.7090 o          1 8YM      -0.703500
     18 O2          -2.0600    -0.1010    -3.0530 o          1 8YM      -0.703500
     19 S            0.0730     0.8300    -0.8710 ss         1 8YM       0.181000
     20 H1           1.0530    -3.9660    -0.4050 ha         1 8YM       0.100000
     21 H2           3.2740    -3.6310     0.6690 ha         1 8YM       0.097000
     22 H3          -0.3190    -2.0030    -1.0520 ha         1 8YM       0.140000
     23 H4           4.9600     0.8170     1.1980 hc         1 8YM       0.050033
     24 H5           4.7680     0.7520    -0.5110 hc         1 8YM       0.050033
     25 H6           4.6590     2.3600     0.3410 hc         1 8YM       0.050033
     26 H7          -2.6780    -0.4040     3.0310 ha         1 8YM       0.088000
     27 H8          -4.8110    -0.5080     1.7490 ha         1 8YM       0.088000
     28 H9          -4.8220    -0.0430    -0.6910 ha         1 8YM       0.124000
     29 H10          4.1150    -1.3550     1.1120 ha         1 8YM       0.092000
     30 H11         -0.5580     0.1760     1.8760 ha         1 8YM       0.100000
@<TRIPOS>BOND
     1     1     2 ar  
     2     1     4 ar  
     3     1    20 1   
     4     2    13 ar  
     5     2    21 1   
     6     3     7 1   
     7     3    13 ar  
     8     3    14 ar  
     9     4    14 ar  
    10     4    22 1   
    11     5     7 1   
    12     5    23 1   
    13     5    24 1   
    14     5    25 1   
    15     6     7 2   
    16     8     9 ar  
    17     8    16 ar  
    18     8    26 1   
    19     9    10 ar  
    20     9    27 1   
    21    10    11 ar  
    22    10    28 1   
    23    11    12 1   
    24    11    15 ar  
    25    12    17 1   
    26    12    18 1   
    27    13    29 1   
    28    14    19 1   
    29    15    16 ar  
    30    15    19 1   
    31    16    30 1   
@<TRIPOS>SUBSTRUCTURE
     1 8YM         1 TEMP              0 ****  ****    0 ROOT
