@<TRIPOS>MOLECULE
8YO
   21    22     1     0     0
SMALL
No Charge or Current Charge


@<TRIPOS>ATOM
      1 C1          -1.8970    -0.3700    -0.0220 ca         1 8YO       0.146100
      2 C2          -2.8780     0.6560    -0.0110 ca         1 8YO      -0.224000
      3 C3          -2.4900     2.0200    -0.0080 ca         1 8YO      -0.114000
      4 C4          -1.1250     2.3830    -0.0150 ca         1 8YO      -0.112000
      5 C5          -0.1760     1.3540    -0.0260 ca         1 8YO      -0.074800
      6 C6          -0.5530     0.0300    -0.0300 ca         1 8YO       0.005100
      7 C7          -3.5700    -2.1800    -0.0200 c3         1 8YO       0.151900
      8 C8           1.2710     1.4030    -0.0360 cc         1 8YO      -0.289200
      9 C9           1.6700     0.0670    -0.0440 cd         1 8YO       0.007900
     10 C10          3.0730    -0.4730    -0.0560 c          1 8YO       0.734200
     11 O1          -2.2100    -1.7160    -0.0260 os         1 8YO      -0.316100
     12 O3           4.0070     0.3210    -0.0590 o          1 8YO      -0.691000
     13 O7           0.5630    -0.7540    -0.0410 os         1 8YO      -0.124200
     14 H1          -3.9380     0.4170    -0.0050 ha         1 8YO       0.096000
     15 H2          -3.2510     2.7960     0.0010 ha         1 8YO       0.088000
     16 H3          -0.8210     3.4270    -0.0120 ha         1 8YO       0.105000
     17 H4          -4.0960    -1.8300     0.8780 h1         1 8YO       0.029700
     18 H5          -4.1070    -1.8220    -0.9070 h1         1 8YO       0.029700
     19 H6          -3.5970    -3.2770    -0.0240 h1         1 8YO       0.029700
     20 H7           1.9240     2.2730    -0.0360 ha         1 8YO       0.213000
     21 O2           3.2380    -1.6870    -0.0630 o          1 8YO      -0.691000
@<TRIPOS>BOND
     1     1     2 ar  
     2     1     6 ar  
     3     1    11 1   
     4     2     3 ar  
     5     2    14 1   
     6     3     4 ar  
     7     3    15 1   
     8     4     5 ar  
     9     4    16 1   
    10     5     6 ar  
    11     5     8 1   
    12     6    13 1   
    13     7    11 1   
    14     7    17 1   
    15     7    18 1   
    16     7    19 1   
    17     8     9 2   
    18     8    20 1   
    19     9    10 1   
    20     9    13 1   
    21    10    12 1   
    22    10    21 1   
@<TRIPOS>SUBSTRUCTURE
     1 8YO         1 TEMP              0 ****  ****    0 ROOT
