@<TRIPOS>MOLECULE
8YO
   21    22     1     0     0
SMALL
abcg2


@<TRIPOS>ATOM
      1 C1          -1.8880    -0.3570    -0.0230 ca         1 8YO       0.146100
      2 C2          -2.8520     0.6420    -0.0090 ca         1 8YO      -0.224000
      3 C3          -2.4860     1.9990    -0.0050 ca         1 8YO      -0.114000
      4 C4          -1.1690     2.4070    -0.0150 ca         1 8YO      -0.112000
      5 C5          -0.1840     1.4110    -0.0290 ca         1 8YO      -0.074800
      6 C6          -0.5590     0.0700    -0.0320 ca         1 8YO       0.005100
      7 C7          -3.4520    -2.1260    -0.0210 c3         1 8YO       0.151900
      8 C8           1.2490     1.3870    -0.0400 cc         1 8YO      -0.289200
      9 C9           1.6160     0.0840    -0.0470 cd         1 8YO       0.007900
     10 C10          2.9790    -0.5550    -0.0530 c          1 8YO       0.734200
     11 O1          -2.1090    -1.6810    -0.0280 os         1 8YO      -0.316100
     12 O3           3.9280     0.2500    -0.0570 o          1 8YO      -0.691000
     13 O7           0.5230    -0.7310    -0.0430 os         1 8YO      -0.124200
     14 H1          -3.9040     0.3930    -0.0010 ha         1 8YO       0.096000
     15 H2          -3.2760     2.7390     0.0050 ha         1 8YO       0.088000
     16 H3          -0.9070     3.4570    -0.0120 ha         1 8YO       0.105000
     17 H4          -3.9840    -1.7930     0.8730 h1         1 8YO       0.029700
     18 H5          -3.9970    -1.7830    -0.9050 h1         1 8YO       0.029700
     19 H6          -3.4190    -3.2120    -0.0270 h1         1 8YO       0.029700
     20 H7           1.9180     2.2320    -0.0400 ha         1 8YO       0.213000
     21 O2           3.0130    -1.7960    -0.0530 o          1 8YO      -0.691000
@<TRIPOS>BOND
     1     1     2 ar  
     2     1     6 ar  
     3     1    11 1   
     4     2     3 ar  
     5     2    14 1   
     6     3     4 ar  
     7     3    15 1   
     8     4     5 ar  
     9     4    16 1   
    10     5     6 ar  
    11     5     8 1   
    12     6    13 1   
    13     7    11 1   
    14     7    17 1   
    15     7    18 1   
    16     7    19 1   
    17     8     9 2   
    18     8    20 1   
    19     9    10 1   
    20     9    13 1   
    21    10    12 1   
    22    10    21 1   
@<TRIPOS>SUBSTRUCTURE
     1 8YO         1 TEMP              0 ****  ****    0 ROOT
