@<TRIPOS>MOLECULE
8YP
   31    30     1     0     0
SMALL
No Charge or Current Charge


@<TRIPOS>ATOM
      1 C1           6.3670     0.2900     0.1450 c3         1 8YP      -0.089100
      2 C2           5.0610    -0.5250     0.0990 c3         1 8YP      -0.074400
      3 C3           3.7960     0.3600     0.0560 c3         1 8YP      -0.075400
      4 C4           2.4870    -0.4580     0.0110 c3         1 8YP      -0.074400
      5 C5           1.2220     0.4270    -0.0320 c3         1 8YP      -0.074400
      6 C6          -0.0870    -0.3910    -0.0780 c3         1 8YP      -0.074400
      7 C7          -1.3520     0.4950    -0.1210 c3         1 8YP      -0.075400
      8 C8          -2.6610    -0.3230    -0.1670 c3         1 8YP      -0.066400
      9 H2           6.3960     0.9280     1.0370 hc         1 8YP       0.031700
     10 H3           7.2350    -0.3790     0.1750 hc         1 8YP       0.031700
     11 H1           6.4570     0.9290    -0.7420 hc         1 8YP       0.031700
     12 H4           5.0790    -1.1780    -0.7830 hc         1 8YP       0.036700
     13 H5           5.0180    -1.1790     0.9800 hc         1 8YP       0.036700
     14 H7           3.7830     1.0120     0.9390 hc         1 8YP       0.037200
     15 H6           3.8440     1.0130    -0.8240 hc         1 8YP       0.037200
     16 H9           2.5000    -1.1100    -0.8720 hc         1 8YP       0.037200
     17 H8           2.4390    -1.1110     0.8910 hc         1 8YP       0.037200
     18 H11          1.2090     1.0790     0.8500 hc         1 8YP       0.038200
     19 H10          1.2700     1.0810    -0.9130 hc         1 8YP       0.038200
     20 H13         -0.0730    -1.0430    -0.9610 hc         1 8YP       0.038700
     21 H12         -0.1340    -1.0440     0.8020 hc         1 8YP       0.038700
     22 H15         -1.3650     1.1470     0.7610 hc         1 8YP       0.040200
     23 H14         -1.3040     1.1480    -1.0010 hc         1 8YP       0.040200
     24 H17         -2.6480    -0.9750    -1.0490 hc         1 8YP       0.042700
     25 H18         -2.7070    -0.9770     0.7140 hc         1 8YP       0.042700
     26 C9          -3.9260     0.5670    -0.2080 c3         1 8YP      -0.204400
     27 C10         -5.2040    -0.2740    -0.2730 c          1 8YP       0.574900
     28 O1          -5.7460    -0.7490     0.7190 o          1 8YP      -0.513100
     29 H16         -3.9520     1.1980     0.6880 hc         1 8YP       0.067200
     30 H19         -3.8710     1.1800    -1.1150 hc         1 8YP       0.067200
     31 H20         -5.6130    -0.4500    -1.2930 h4         1 8YP      -0.021800
@<TRIPOS>BOND
     1     1     2 1   
     2     1     9 1   
     3     1    10 1   
     4     1    11 1   
     5     2     3 1   
     6     2    12 1   
     7     2    13 1   
     8     3     4 1   
     9     3    14 1   
    10     3    15 1   
    11     4     5 1   
    12     4    16 1   
    13     4    17 1   
    14     5     6 1   
    15     5    18 1   
    16     5    19 1   
    17     6     7 1   
    18     6    20 1   
    19     6    21 1   
    20     7     8 1   
    21     7    22 1   
    22     7    23 1   
    23     8    24 1   
    24     8    25 1   
    25     8    26 1   
    26    26    27 1   
    27    26    29 1   
    28    26    30 1   
    29    27    28 2   
    30    27    31 1   
@<TRIPOS>SUBSTRUCTURE
     1 8YP         1 TEMP              0 ****  ****    0 ROOT
