@<TRIPOS>MOLECULE
8YP
   31    30     1     0     0
SMALL
abcg2


@<TRIPOS>ATOM
      1 C1           6.2890     0.3100     0.1230 c3         1 8YP      -0.089100
      2 C2           5.0110    -0.5160     0.0820 c3         1 8YP      -0.074400
      3 C3           3.7540     0.3450     0.0500 c3         1 8YP      -0.075400
      4 C4           2.4650    -0.4650     0.0070 c3         1 8YP      -0.074400
      5 C5           1.2130     0.4030    -0.0230 c3         1 8YP      -0.074400
      6 C6          -0.0790    -0.4040    -0.0700 c3         1 8YP      -0.074400
      7 C7          -1.3260     0.4710    -0.0950 c3         1 8YP      -0.075400
      8 C8          -2.6170    -0.3360    -0.1500 c3         1 8YP      -0.066400
      9 H2           6.3140     0.9490     1.0090 hc         1 8YP       0.031700
     10 H3           7.1790    -0.3200     0.1460 hc         1 8YP       0.031700
     11 H1           6.3660     0.9590    -0.7510 hc         1 8YP       0.031700
     12 H4           5.0240    -1.1700    -0.7960 hc         1 8YP       0.036700
     13 H5           4.9730    -1.1790     0.9520 hc         1 8YP       0.036700
     14 H7           3.7430     1.0000     0.9290 hc         1 8YP       0.037200
     15 H6           3.7950     1.0100    -0.8200 hc         1 8YP       0.037200
     16 H9           2.4750    -1.1180    -0.8730 hc         1 8YP       0.037200
     17 H8           2.4240    -1.1310     0.8760 hc         1 8YP       0.037200
     18 H11          1.2020     1.0540     0.8580 hc         1 8YP       0.038200
     19 H10          1.2560     1.0700    -0.8910 hc         1 8YP       0.038200
     20 H13         -0.0710    -1.0520    -0.9530 hc         1 8YP       0.038700
     21 H12         -0.1230    -1.0720     0.7970 hc         1 8YP       0.038700
     22 H15         -1.3370     1.1140     0.7910 hc         1 8YP       0.040200
     23 H14         -1.2830     1.1440    -0.9590 hc         1 8YP       0.040200
     24 H17         -2.6160    -0.9650    -1.0450 hc         1 8YP       0.042700
     25 H18         -2.6600    -1.0160     0.7060 hc         1 8YP       0.042700
     26 C9          -3.8580     0.5600    -0.1540 c3         1 8YP      -0.204400
     27 C10         -5.1090    -0.2440    -0.3020 c          1 8YP       0.574900
     28 O1          -6.0550    -0.2130     0.4470 o          1 8YP      -0.513100
     29 H16         -3.9070     1.1740     0.7470 hc         1 8YP       0.067200
     30 H19         -3.8040     1.2340    -1.0170 hc         1 8YP       0.067200
     31 H20         -5.1160    -0.9080    -1.1870 h4         1 8YP      -0.021800
@<TRIPOS>BOND
     1     1     2 1   
     2     1     9 1   
     3     1    10 1   
     4     1    11 1   
     5     2     3 1   
     6     2    12 1   
     7     2    13 1   
     8     3     4 1   
     9     3    14 1   
    10     3    15 1   
    11     4     5 1   
    12     4    16 1   
    13     4    17 1   
    14     5     6 1   
    15     5    18 1   
    16     5    19 1   
    17     6     7 1   
    18     6    20 1   
    19     6    21 1   
    20     7     8 1   
    21     7    22 1   
    22     7    23 1   
    23     8    24 1   
    24     8    25 1   
    25     8    26 1   
    26    26    27 1   
    27    26    29 1   
    28    26    30 1   
    29    27    28 2   
    30    27    31 1   
@<TRIPOS>SUBSTRUCTURE
     1 8YP         1 TEMP              0 ****  ****    0 ROOT
