@<TRIPOS>MOLECULE
8YQ
   80    85     1     0     0
SMALL
No Charge or Current Charge


@<TRIPOS>ATOM
      1 C14          5.7140    -1.4340     0.0960 cp         1 8YQ      -0.047000
      2 C13          4.2470     0.6610    -0.1950 c3         1 8YQ      -0.055800
      3 C15          6.9290    -0.7140    -0.3910 cp         1 8YQ      -0.022000
      4 C17          9.2340     0.0370    -0.0490 ca         1 8YQ       0.096000
      5 C16          8.0880    -0.6270     0.4150 ca         1 8YQ      -0.096000
      6 C8          -0.9640    -0.4270     0.6150 ca         1 8YQ      -0.290000
      7 C10          1.8890    -0.9740     0.6330 c3         1 8YQ       0.212900
      8 C9          -0.4570    -1.7270     0.4010 ca         1 8YQ       0.170100
      9 N1          -5.0110    -1.2090    -2.1360 n7         1 8YQ      -0.960400
     10 C12          4.4240    -0.8210     0.1600 ca         1 8YQ      -0.054300
     11 C11          3.2990    -1.5840     0.5840 ca         1 8YQ      -0.085300
     12 O3          10.3380     0.1180     0.7400 os         1 8YQ      -0.305000
     13 C1          -4.9580     4.7370     0.3110 ca         1 8YQ      -0.061300
     14 C2          -4.9420     5.4790     1.5080 ca         1 8YQ      -0.111000
     15 C3          -4.0060     5.1870     2.5150 ca         1 8YQ      -0.125000
     16 C4          -3.0810     4.1460     2.3370 ca         1 8YQ      -0.111000
     17 C5          -3.0800     3.3970     1.1450 ca         1 8YQ      -0.103300
     18 C7          -2.3570    -0.2040     0.6070 ca         1 8YQ       0.193100
     19 O5          -7.7750     1.8030    -0.0370 o          1 8YQ      -0.736000
     20 N           -6.4300     3.9130    -1.5570 n8         1 8YQ      -1.032200
     21 O           -2.8980     1.0460     0.8190 os         1 8YQ      -0.317100
     22 O1           0.9000    -1.9930     0.4010 os         1 8YQ      -0.339100
     23 O2          10.3730     1.2850    -1.8230 os         1 8YQ      -0.305000
     24 O4          -6.2930    -2.1650    -3.5500 oh         1 8YQ      -0.668000
     25 C18          9.2620     0.6220    -1.3240 ca         1 8YQ       0.097000
     26 C19         11.4770     1.3500    -0.9740 cc         1 8YQ       0.118900
     27 C20         11.4490     0.7690     0.2900 cd         1 8YQ       0.120900
     28 C21          8.1230     0.5320    -2.1410 ca         1 8YQ      -0.106000
     29 C22          6.9700    -0.1320    -1.6820 ca         1 8YQ      -0.095000
     30 C23          5.8530    -2.7790     0.5100 ca         1 8YQ      -0.097000
     31 C24          4.7510    -3.5150     0.9590 ca         1 8YQ      -0.120000
     32 C25          3.4830    -2.9240     0.9920 ca         1 8YQ      -0.070000
     33 C26         -1.3510    -2.7960     0.1800 ca         1 8YQ       0.041000
     34 C27         -2.7360    -2.5710     0.1710 ca         1 8YQ      -0.053000
     35 C28         -3.2480    -1.2770     0.3810 ca         1 8YQ      -0.109300
     36 C29         -4.7590    -1.0360     0.3530 c3         1 8YQ      -0.056100
     37 C30         -5.2410    -0.3400    -0.9570 c5         1 8YQ       0.216500
     38 C31         -6.1250    -2.1310    -2.1880 c5         1 8YQ       0.401500
     39 C32         -7.3130    -1.4640    -1.4270 c5         1 8YQ      -0.068400
     40 C33         -6.7510    -0.0390    -1.1420 c5         1 8YQ      -0.195700
     41 C34         -7.3810     0.6540     0.0930 c          1 8YQ       0.723000
     42 C35         -4.0140     3.7030     0.1330 ca         1 8YQ      -0.043000
     43 H1           3.8710     0.7780    -1.2180 hc         1 8YQ       0.045367
     44 H2           3.5450     1.1600     0.4830 hc         1 8YQ       0.045367
     45 H3           5.1820     1.2240    -0.1150 hc         1 8YQ       0.045367
     46 H4           8.0920    -1.0700     1.4070 ha         1 8YQ       0.135000
     47 H5          -0.2870     0.4010     0.7900 ha         1 8YQ       0.114000
     48 H6           1.7400    -0.5100     1.6170 h1         1 8YQ       0.044200
     49 H7           1.7910    -0.1960    -0.1340 h1         1 8YQ       0.044200
     50 H8          -4.1430    -1.7370    -2.0010 hn         1 8YQ       0.417000
     51 H11         -4.0030     5.7640     3.4370 ha         1 8YQ       0.098000
     52 H12         -2.3690     3.9190     3.1280 ha         1 8YQ       0.097000
     53 H16         -6.8930     3.2390    -0.9190 hn         1 8YQ       0.431000
     54 H17         -7.1950     4.2060    -2.1740 hn         1 8YQ       0.431000
     55 H19         -6.8680     5.5310    -0.3070 h1         1 8YQ       0.019700
     56 H20         -5.5480     5.8140    -1.4630 h1         1 8YQ       0.019700
     57 H21         -5.6780    -1.4340    -3.7700 ho         1 8YQ       0.429000
     58 H22         12.3150     1.8820    -1.4050 h4         1 8YQ       0.042100
     59 H23         12.2640     0.7760     1.0020 h4         1 8YQ       0.043100
     60 H24          8.1340     0.9750    -3.1340 ha         1 8YQ       0.130000
     61 H25          6.1000    -0.2020    -2.3320 ha         1 8YQ       0.127000
     62 H26          6.8300    -3.2550     0.4720 ha         1 8YQ       0.112000
     63 H27          4.8790    -4.5490     1.2740 ha         1 8YQ       0.114000
     64 H28          2.6390    -3.5150     1.3420 ha         1 8YQ       0.142000
     65 H29         -3.4110    -3.4060    -0.0030 ha         1 8YQ       0.132000
     66 H30         -5.2950    -1.9780     0.5140 hc         1 8YQ       0.077700
     67 H31         -5.0200    -0.4110     1.2140 hc         1 8YQ       0.077700
     68 H32         -4.6660     0.5930    -1.0540 h1         1 8YQ       0.069700
     69 H33         -5.8740    -3.1200    -1.7850 h2         1 8YQ       0.002700
     70 H34         -8.2390    -1.4400    -2.0110 hc         1 8YQ       0.055700
     71 H35         -7.5280    -2.0200    -0.5080 hc         1 8YQ       0.055700
     72 H36         -6.8630     0.6260    -2.0050 hc         1 8YQ       0.056700
     73 H37         -4.0110     3.1240    -0.7880 ha         1 8YQ       0.155000
     74 Cl          -0.7510    -4.4350    -0.0890 cl         1 8YQ      -0.213000
     75 C6          -2.1120     2.2370     0.9570 c3         1 8YQ       0.217900
     76 C           -5.9820     5.0790    -0.7730 c3         1 8YQ       0.213100
     77 O6          -7.5480     0.0350     1.1340 o          1 8YQ      -0.736000
     78 H13         -1.5050     2.4080     0.0580 h1         1 8YQ       0.030700
     79 H14         -1.4420     2.1620     1.8230 h1         1 8YQ       0.030700
     80 H10         -5.6570     6.2850     1.6590 ha         1 8YQ       0.101000
@<TRIPOS>BOND
     1     1     3 1   
     2     1    10 ar  
     3     1    30 ar  
     4     2    10 1   
     5     2    43 1   
     6     2    44 1   
     7     2    45 1   
     8     3     5 ar  
     9     3    29 ar  
    10     4     5 ar  
    11     4    12 1   
    12     4    25 ar  
    13     5    46 1   
    14     6     8 ar  
    15     6    18 ar  
    16     6    47 1   
    17     7    11 1   
    18     7    22 1   
    19     7    48 1   
    20     7    49 1   
    21     8    22 1   
    22     8    33 ar  
    23     9    37 1   
    24     9    38 1   
    25     9    50 1   
    26    10    11 ar  
    27    11    32 ar  
    28    12    27 1   
    29    13    14 ar  
    30    13    42 ar  
    31    13    76 1   
    32    14    15 ar  
    33    14    80 1   
    34    15    16 ar  
    35    15    51 1   
    36    16    17 ar  
    37    16    52 1   
    38    17    42 ar  
    39    17    75 1   
    40    18    21 1   
    41    18    35 ar  
    42    19    41 1   
    43    20    53 1   
    44    20    54 1   
    45    20    76 1   
    46    21    75 1   
    47    23    25 1   
    48    23    26 1   
    49    24    38 1   
    50    24    57 1   
    51    25    28 ar  
    52    26    27 2   
    53    26    58 1   
    54    27    59 1   
    55    28    29 ar  
    56    28    60 1   
    57    29    61 1   
    58    30    31 ar  
    59    30    62 1   
    60    31    32 ar  
    61    31    63 1   
    62    32    64 1   
    63    33    34 ar  
    64    33    74 1   
    65    34    35 ar  
    66    34    65 1   
    67    35    36 1   
    68    36    37 1   
    69    36    66 1   
    70    36    67 1   
    71    37    40 1   
    72    37    68 1   
    73    38    39 1   
    74    38    69 1   
    75    39    40 1   
    76    39    70 1   
    77    39    71 1   
    78    40    41 1   
    79    40    72 1   
    80    41    77 1   
    81    42    73 1   
    82    55    76 1   
    83    56    76 1   
    84    75    78 1   
    85    75    79 1   
@<TRIPOS>SUBSTRUCTURE
     1 8YQ         1 TEMP              0 ****  ****    0 ROOT
