@<TRIPOS>MOLECULE
8YQ
   80    85     1     0     0
SMALL
abcg2


@<TRIPOS>ATOM
      1 C14          5.4990    -1.3940    -0.2420 cp         1 8YQ      -0.047000
      2 C13          4.0870     0.6670     0.1920 c3         1 8YQ      -0.055800
      3 C15          6.7150    -0.5720    -0.4480 cp         1 8YQ      -0.022000
      4 C17          9.0010    -0.0590     0.1380 ca         1 8YQ       0.096000
      5 C16          7.8450    -0.7870     0.3430 ca         1 8YQ      -0.096000
      6 C8          -0.9350    -0.3650     0.7060 ca         1 8YQ      -0.290000
      7 C10          1.7900    -1.0260     0.4220 c3         1 8YQ       0.212900
      8 C9          -0.4920    -1.6730     0.5190 ca         1 8YQ       0.170100
      9 N1          -4.8820    -1.2500    -1.7860 n7         1 8YQ      -0.960400
     10 C12          4.2490    -0.8200     0.0290 ca         1 8YQ      -0.054300
     11 C11          3.1310    -1.6580     0.1580 ca         1 8YQ      -0.085300
     12 O3          10.0730    -0.3090     0.9470 os         1 8YQ      -0.305000
     13 C1          -4.7450     4.6680     0.0370 ca         1 8YQ      -0.061300
     14 C2          -4.4230     5.7530     0.8550 ca         1 8YQ      -0.111000
     15 C3          -3.2990     5.7170     1.6630 ca         1 8YQ      -0.125000
     16 C4          -2.4870     4.5880     1.6840 ca         1 8YQ      -0.111000
     17 C5          -2.7940     3.5020     0.8760 ca         1 8YQ      -0.103300
     18 C7          -2.2970    -0.0880     0.7850 ca         1 8YQ       0.193100
     19 O5          -7.3120     1.4770     0.6780 o          1 8YQ      -0.736000
     20 N           -6.2690     3.4530    -1.4690 n8         1 8YQ      -1.032200
     21 O           -2.7810     1.1510     0.9690 os         1 8YQ      -0.317100
     22 O1           0.7960    -2.0250     0.4120 os         1 8YQ      -0.339100
     23 O2          10.1760     1.6420    -1.1040 os         1 8YQ      -0.305000
     24 O4          -6.4540    -1.7750    -3.4790 oh         1 8YQ      -0.668000
     25 C18          9.0520     0.9020    -0.8710 ca         1 8YQ       0.097000
     26 C19         11.2290     1.3650    -0.2720 cc         1 8YQ       0.118900
     27 C20         11.1810     0.4550     0.6850 cd         1 8YQ       0.120900
     28 C21          7.9400     1.1190    -1.6630 ca         1 8YQ      -0.106000
     29 C22          6.7790     0.3870    -1.4530 ca         1 8YQ      -0.095000
     30 C23          5.6200    -2.7800    -0.3380 ca         1 8YQ      -0.097000
     31 C24          4.5140    -3.5970    -0.1920 ca         1 8YQ      -0.120000
     32 C25          3.2680    -3.0360     0.0480 ca         1 8YQ      -0.070000
     33 C26         -1.4340    -2.6940     0.4410 ca         1 8YQ       0.041000
     34 C27         -2.7860    -2.4060     0.5230 ca         1 8YQ      -0.053000
     35 C28         -3.2520    -1.1090     0.6840 ca         1 8YQ      -0.109300
     36 C29         -4.7270    -0.8190     0.6800 c3         1 8YQ      -0.056100
     37 C30         -5.2340    -0.3430    -0.6980 c5         1 8YQ       0.216500
     38 C31         -5.9980    -2.0800    -2.1710 c5         1 8YQ       0.401500
     39 C32         -7.1040    -1.7320    -1.1850 c5         1 8YQ      -0.068400
     40 C33         -6.7720    -0.3010    -0.7880 c5         1 8YQ      -0.195700
     41 C34         -7.4490     0.2490     0.4720 c          1 8YQ       0.723000
     42 C35         -3.9160     3.5570     0.0520 ca         1 8YQ      -0.043000
     43 H1           3.6960     1.1330    -0.7160 hc         1 8YQ       0.045367
     44 H2           3.3960     0.9120     0.9980 hc         1 8YQ       0.045367
     45 H3           5.0300     1.1550     0.4230 hc         1 8YQ       0.045367
     46 H4           7.8260    -1.5220     1.1390 ha         1 8YQ       0.135000
     47 H5          -0.2140     0.4350     0.7940 ha         1 8YQ       0.114000
     48 H6           1.7960    -0.5100     1.3910 h1         1 8YQ       0.044200
     49 H7           1.5790    -0.2690    -0.3430 h1         1 8YQ       0.044200
     50 H8          -4.0240    -1.7610    -1.6380 hn         1 8YQ       0.417000
     51 H11         -3.0610     6.5630     2.2950 ha         1 8YQ       0.098000
     52 H12         -1.6230     4.5530     2.3370 ha         1 8YQ       0.097000
     53 H16         -6.5660     2.7700    -0.7730 hn         1 8YQ       0.431000
     54 H17         -7.0470     3.5740    -2.1030 hn         1 8YQ       0.431000
     55 H19         -6.8060     5.1070    -0.2120 h1         1 8YQ       0.019700
     56 H20         -5.8240     5.4740    -1.6060 h1         1 8YQ       0.019700
     57 H21         -5.6840    -1.7710    -4.0570 ho         1 8YQ       0.429000
     58 H22         12.1070     1.9610    -0.4700 h4         1 8YQ       0.042100
     59 H23         12.0160     0.2430     1.3350 h4         1 8YQ       0.043100
     60 H24          7.9870     1.8610    -2.4500 ha         1 8YQ       0.130000
     61 H25          5.9240     0.5630    -2.0920 ha         1 8YQ       0.127000
     62 H26          6.5880    -3.2160    -0.5510 ha         1 8YQ       0.112000
     63 H27          4.6170    -4.6710    -0.2750 ha         1 8YQ       0.114000
     64 H28          2.4080    -3.6840     0.1440 ha         1 8YQ       0.142000
     65 H29         -3.5010    -3.2180     0.4580 ha         1 8YQ       0.132000
     66 H30         -5.2620    -1.7250     0.9730 hc         1 8YQ       0.077700
     67 H31         -4.9670    -0.0540     1.4200 hc         1 8YQ       0.077700
     68 H32         -4.8230     0.6520    -0.8840 h1         1 8YQ       0.069700
     69 H33         -5.7150    -3.1390    -2.1260 h2         1 8YQ       0.002700
     70 H34         -8.1010    -1.8510    -1.6130 hc         1 8YQ       0.055700
     71 H35         -7.0440    -2.3890    -0.3160 hc         1 8YQ       0.055700
     72 H36         -7.0230     0.3640    -1.6210 hc         1 8YQ       0.056700
     73 H37         -4.1630     2.7190    -0.5850 ha         1 8YQ       0.155000
     74 CL          -0.9020    -4.3280     0.2290 cl         1 8YQ      -0.213000
     75 C6          -1.9260     2.2770     0.8730 c3         1 8YQ       0.217900
     76 C           -5.9810     4.7200    -0.8290 c3         1 8YQ       0.213100
     77 O6          -8.0710    -0.5470     1.2000 o          1 8YQ      -0.736000
     78 H13         -1.3410     2.2280    -0.0540 h1         1 8YQ       0.030700
     79 H14         -1.2190     2.3060     1.7080 h1         1 8YQ       0.030700
     80 H10         -5.0610     6.6300     0.8610 ha         1 8YQ       0.101000
@<TRIPOS>BOND
     1     1     3 1   
     2     1    10 ar  
     3     1    30 ar  
     4     2    10 1   
     5     2    43 1   
     6     2    44 1   
     7     2    45 1   
     8     3     5 ar  
     9     3    29 ar  
    10     4     5 ar  
    11     4    12 1   
    12     4    25 ar  
    13     5    46 1   
    14     6     8 ar  
    15     6    18 ar  
    16     6    47 1   
    17     7    11 1   
    18     7    22 1   
    19     7    48 1   
    20     7    49 1   
    21     8    22 1   
    22     8    33 ar  
    23     9    37 1   
    24     9    38 1   
    25     9    50 1   
    26    10    11 ar  
    27    11    32 ar  
    28    12    27 1   
    29    13    14 ar  
    30    13    42 ar  
    31    13    76 1   
    32    14    15 ar  
    33    14    80 1   
    34    15    16 ar  
    35    15    51 1   
    36    16    17 ar  
    37    16    52 1   
    38    17    42 ar  
    39    17    75 1   
    40    18    21 1   
    41    18    35 ar  
    42    19    41 1   
    43    20    53 1   
    44    20    54 1   
    45    20    76 1   
    46    21    75 1   
    47    23    25 1   
    48    23    26 1   
    49    24    38 1   
    50    24    57 1   
    51    25    28 ar  
    52    26    27 2   
    53    26    58 1   
    54    27    59 1   
    55    28    29 ar  
    56    28    60 1   
    57    29    61 1   
    58    30    31 ar  
    59    30    62 1   
    60    31    32 ar  
    61    31    63 1   
    62    32    64 1   
    63    33    34 ar  
    64    33    74 1   
    65    34    35 ar  
    66    34    65 1   
    67    35    36 1   
    68    36    37 1   
    69    36    66 1   
    70    36    67 1   
    71    37    40 1   
    72    37    68 1   
    73    38    39 1   
    74    38    69 1   
    75    39    40 1   
    76    39    70 1   
    77    39    71 1   
    78    40    41 1   
    79    40    72 1   
    80    41    77 1   
    81    42    73 1   
    82    55    76 1   
    83    56    76 1   
    84    75    78 1   
    85    75    79 1   
@<TRIPOS>SUBSTRUCTURE
     1 8YQ         1 TEMP              0 ****  ****    0 ROOT
