@<TRIPOS>MOLECULE
8YR
   20    20     1     0     0
SMALL
bcc


@<TRIPOS>ATOM
      1 CA          19.8900    25.5710    16.2940 c3         1 8YR       0.021500
      2 N           21.2410    25.3340    16.7940 n8         1 8YR      -0.892800
      3 CB          19.9790    25.9740    14.8250 c5         1 8YR      -0.064700
      4 CG2         18.6760    26.4530    14.1880 c5         1 8YR      -0.101400
      5 CG1         20.8800    27.1810    14.5810 c5         1 8YR       0.133400
      6 C           18.9250    24.3680    16.4370 c          1 8YR       0.902600
      7 CD2         19.1800    27.2520    12.9950 c5         1 8YR       0.127400
      8 O           19.4310    23.2360    16.2930 o          1 8YR      -0.836800
      9 OD1         20.4480    27.7750    13.3660 os         1 8YR      -0.447600
     10 H8          19.4780    26.4230    16.8460 h1         1 8YR       0.039700
     11 H9          21.1970    25.2030    17.7990 hn         1 8YR       0.328800
     12 H10         20.3600    25.1200    14.2500 hc         1 8YR       0.056700
     13 H12         18.1300    27.0940    14.8850 hc         1 8YR       0.062200
     14 H13         18.0110    25.6440    13.8890 hc         1 8YR       0.062200
     15 H16         21.9350    26.9140    14.4970 h1         1 8YR       0.037200
     16 H17         20.7830    27.8960    15.4100 h1         1 8YR       0.037200
     17 H20         19.2870    26.6080    12.1130 h1         1 8YR       0.020700
     18 H21         18.5100    28.0720    12.7220 h1         1 8YR       0.020700
     19 OXT         17.7240    24.6300    16.6490 o          1 8YR      -0.836800
     20 H2          21.5430    24.4350    16.4330 hn         1 8YR       0.328800
@<TRIPOS>BOND
     1     1     2 1   
     2     1     3 1   
     3     1     6 1   
     4     1    10 1   
     5     2    11 1   
     6     2    20 1   
     7     3     4 1   
     8     3     5 1   
     9     3    12 1   
    10     4     7 1   
    11     4    13 1   
    12     4    14 1   
    13     5     9 1   
    14     5    15 1   
    15     5    16 1   
    16     6     8 1   
    17     6    19 1   
    18     7     9 1   
    19     7    17 1   
    20     7    18 1   
@<TRIPOS>SUBSTRUCTURE
     1 8YR         1 TEMP              0 ****  ****    0 ROOT
