@<TRIPOS>MOLECULE
8YT
   46    48     1     0     0
SMALL
abcg2


@<TRIPOS>ATOM
      1 CAO         -3.5390     1.5680     0.2110 c6         1 8YT       0.097000
      2 CAP         -4.1990     0.3510     0.8460 c6         1 8YT      -0.089900
      3 CAQ         -4.2450    -0.8120    -0.1430 c6         1 8YT      -0.142700
      4 CAT         -4.8230    -2.0620     0.4930 c          1 8YT       0.605100
      5 OAU         -4.4600    -2.4510     1.5950 o          1 8YT      -0.600100
      6 NAV         -5.7310    -2.7140    -0.2470 nt         1 8YT      -0.609000
      7 CAR         -2.8360    -1.1020    -0.6720 c6         1 8YT      -0.089900
      8 CAS         -2.2220     0.1600    -1.2640 c6         1 8YT       0.097000
      9 NAN         -2.2150     1.2360    -0.2890 n          1 8YT      -0.412800
     10 CAL         -1.1100     1.8230     0.2180 c          1 8YT       0.609100
     11 OAM         -1.1690     2.6870     1.0840 o          1 8YT      -0.606100
     12 CAK          0.2310     1.3760    -0.3380 c3         1 8YT      -0.155400
     13 CAJ          1.4030     2.1520     0.2630 c3         1 8YT      -0.090700
     14 CAH          2.7010     1.7370    -0.3240 cc         1 8YT       0.124300
     15 OAI          3.1480     0.4840    -0.0440 os         1 8YT      -0.251000
     16 CAG          3.5790     2.3480    -1.1530 cd         1 8YT      -0.175000
     17 CAF          4.6330     1.4110    -1.3970 cd         1 8YT      -0.183000
     18 CAE          4.3170     0.2930    -0.6960 cc         1 8YT       0.172300
     19 CAD          5.0060    -0.9880    -0.5330 cx         1 8YT      -0.169000
     20 CAC          4.2510    -2.2740    -0.3040 cx         1 8YT      -0.114400
     21 CAB          5.0740    -1.6930     0.7970 cx         1 8YT      -0.100700
     22 CAA          6.3600    -2.3480     1.2250 c3         1 8YT      -0.064100
     23 H1          -4.1470     1.9270    -0.6260 h1         1 8YT       0.055200
     24 H2          -3.4600     2.3800     0.9280 h1         1 8YT       0.055200
     25 H3          -3.6430     0.0590     1.7400 hc         1 8YT       0.062700
     26 H4          -5.2080     0.6220     1.1640 hc         1 8YT       0.062700
     27 H5          -4.8670    -0.5140    -0.9950 hc         1 8YT       0.047700
     28 H6          -6.0070    -2.3870    -1.1570 hn         1 8YT       0.313000
     29 H7          -6.1270    -3.5830     0.0730 hn         1 8YT       0.313000
     30 H8          -2.2010    -1.4700     0.1390 hc         1 8YT       0.062700
     31 H9          -2.8670    -1.8760    -1.4420 hc         1 8YT       0.062700
     32 H10         -1.2180    -0.0470    -1.6230 h1         1 8YT       0.055200
     33 H11         -2.8060     0.4800    -2.1340 h1         1 8YT       0.055200
     34 H12          0.3600     0.3060    -0.1520 hc         1 8YT       0.064700
     35 H13          0.2390     1.4970    -1.4240 hc         1 8YT       0.064700
     36 H14          1.2820     3.2190     0.0750 hc         1 8YT       0.074700
     37 H15          1.4200     2.0250     1.3480 hc         1 8YT       0.074700
     38 H16          3.4860     3.3470    -1.5480 ha         1 8YT       0.140000
     39 H17          5.5080     1.5520    -2.0100 ha         1 8YT       0.140000
     40 H18          5.8940    -1.0590    -1.1520 hc         1 8YT       0.091700
     41 H19          3.1720    -2.2220    -0.2260 hc         1 8YT       0.075700
     42 H20          4.6180    -3.1590    -0.8110 hc         1 8YT       0.075700
     43 H21          4.5160    -1.2230     1.6010 hc         1 8YT       0.088700
     44 H22          7.0270    -1.6300     1.7040 hc         1 8YT       0.038033
     45 H23          6.1730    -3.1530     1.9370 hc         1 8YT       0.038033
     46 H24          6.8900    -2.7770     0.3740 hc         1 8YT       0.038033
@<TRIPOS>BOND
     1     1     2 1   
     2     1     9 1   
     3     1    23 1   
     4     1    24 1   
     5     2     3 1   
     6     2    25 1   
     7     2    26 1   
     8     3     4 1   
     9     3     7 1   
    10     3    27 1   
    11     4     5 2   
    12     4     6 1   
    13     6    28 1   
    14     6    29 1   
    15     7     8 1   
    16     7    30 1   
    17     7    31 1   
    18     8     9 1   
    19     8    32 1   
    20     8    33 1   
    21     9    10 1   
    22    10    11 2   
    23    10    12 1   
    24    12    13 1   
    25    12    34 1   
    26    12    35 1   
    27    13    14 1   
    28    13    36 1   
    29    13    37 1   
    30    14    15 1   
    31    14    16 2   
    32    15    18 1   
    33    16    17 1   
    34    16    38 1   
    35    17    18 2   
    36    17    39 1   
    37    18    19 1   
    38    19    20 1   
    39    19    21 1   
    40    19    40 1   
    41    20    21 1   
    42    20    41 1   
    43    20    42 1   
    44    21    22 1   
    45    21    43 1   
    46    22    44 1   
    47    22    45 1   
    48    22    46 1   
@<TRIPOS>SUBSTRUCTURE
     1 8YT         1 TEMP              0 ****  ****    0 ROOT
