@<TRIPOS>MOLECULE
8YT
   46    48     1     0     0
SMALL
No Charge or Current Charge


@<TRIPOS>ATOM
      1 CAO         -3.6740     1.5940     0.0560 c6         1 8YT       0.097000
      2 CAP         -4.2940     0.3800     0.7900 c6         1 8YT      -0.089900
      3 CAQ         -4.2290    -0.8960    -0.0950 c6         1 8YT      -0.142700
      4 CAT         -4.8430    -2.1420     0.5780 c          1 8YT       0.605100
      5 OAU         -4.3660    -2.6600     1.5730 o          1 8YT      -0.600100
      6 NAV         -5.9590    -2.6520     0.0140 nt         1 8YT      -0.609000
      7 CAR         -2.8180    -1.1490    -0.6960 c6         1 8YT      -0.089900
      8 CAS         -2.2670     0.1320    -1.3670 c6         1 8YT       0.097000
      9 NAN         -2.2980     1.2770    -0.4140 n          1 8YT      -0.412800
     10 CAL         -1.1490     1.8520     0.1840 c          1 8YT       0.609100
     11 OAM         -1.2630     2.6700     1.0890 o          1 8YT      -0.606100
     12 CAK          0.2450     1.4540    -0.3430 c3         1 8YT      -0.155400
     13 CAJ          1.4500     2.1820     0.3040 c3         1 8YT      -0.090700
     14 CAH          2.7680     1.7400    -0.2640 cc         1 8YT       0.124300
     15 OAI          3.2230     0.4690     0.0030 os         1 8YT      -0.251000
     16 CAG          3.6710     2.3940    -1.0520 cd         1 8YT      -0.175000
     17 CAF          4.7310     1.4960    -1.2900 cd         1 8YT      -0.183000
     18 CAE          4.4370     0.3290    -0.6390 cc         1 8YT       0.172300
     19 CAD          5.1770    -0.9450    -0.5420 cx         1 8YT      -0.169000
     20 CAC          4.4260    -2.2590    -0.4980 cx         1 8YT      -0.114400
     21 CAB          5.1360    -1.7530     0.7370 cx         1 8YT      -0.100700
     22 CAA          6.3860    -2.4470     1.2590 c3         1 8YT      -0.064100
     23 H1          -4.2960     1.8520    -0.8130 h1         1 8YT       0.055200
     24 H2          -3.6760     2.4690     0.7220 h1         1 8YT       0.055200
     25 H3          -3.7490     0.2090     1.7280 hc         1 8YT       0.062700
     26 H4          -5.3340     0.6020     1.0660 hc         1 8YT       0.062700
     27 H5          -4.8780    -0.6840    -0.9570 hc         1 8YT       0.047700
     28 H6          -6.3520    -2.2200    -0.8090 hn         1 8YT       0.313000
     29 H7          -6.3920    -3.4660     0.4240 hn         1 8YT       0.313000
     30 H8          -2.1280    -1.4680     0.0980 hc         1 8YT       0.062700
     31 H9          -2.8550    -1.9670    -1.4280 hc         1 8YT       0.062700
     32 H10         -1.2590    -0.0620    -1.7540 h1         1 8YT       0.055200
     33 H11         -2.8930     0.3810    -2.2360 h1         1 8YT       0.055200
     34 H12          0.3410     0.3670    -0.2440 hc         1 8YT       0.064700
     35 H13          0.2430     1.5760    -1.4320 hc         1 8YT       0.064700
     36 H14          1.3380     3.2640     0.1660 hc         1 8YT       0.074700
     37 H15          1.4460     2.0020     1.3870 hc         1 8YT       0.074700
     38 H16          3.5820     3.4100    -1.4230 ha         1 8YT       0.140000
     39 H17          5.6210     1.6860    -1.8810 ha         1 8YT       0.140000
     40 H18          6.1140    -0.9320    -1.0940 hc         1 8YT       0.091700
     41 H19          3.3390    -2.2320    -0.5030 hc         1 8YT       0.075700
     42 H20          4.8580    -3.1060    -1.0260 hc         1 8YT       0.075700
     43 H21          4.5050    -1.3780     1.5420 hc         1 8YT       0.088700
     44 H22          6.9940    -1.7540     1.8530 hc         1 8YT       0.038033
     45 H23          6.1190    -3.2960     1.9000 hc         1 8YT       0.038033
     46 H24          7.0090    -2.8250     0.4400 hc         1 8YT       0.038033
@<TRIPOS>BOND
     1     1     2 1   
     2     1     9 1   
     3     1    23 1   
     4     1    24 1   
     5     2     3 1   
     6     2    25 1   
     7     2    26 1   
     8     3     4 1   
     9     3     7 1   
    10     3    27 1   
    11     4     5 2   
    12     4     6 1   
    13     6    28 1   
    14     6    29 1   
    15     7     8 1   
    16     7    30 1   
    17     7    31 1   
    18     8     9 1   
    19     8    32 1   
    20     8    33 1   
    21     9    10 1   
    22    10    11 2   
    23    10    12 1   
    24    12    13 1   
    25    12    34 1   
    26    12    35 1   
    27    13    14 1   
    28    13    36 1   
    29    13    37 1   
    30    14    15 1   
    31    14    16 2   
    32    15    18 1   
    33    16    17 1   
    34    16    38 1   
    35    17    18 2   
    36    17    39 1   
    37    18    19 1   
    38    19    20 1   
    39    19    21 1   
    40    19    40 1   
    41    20    21 1   
    42    20    41 1   
    43    20    42 1   
    44    21    22 1   
    45    21    43 1   
    46    22    44 1   
    47    22    45 1   
    48    22    46 1   
@<TRIPOS>SUBSTRUCTURE
     1 8YT         1 TEMP              0 ****  ****    0 ROOT
