@<TRIPOS>MOLECULE
8YU
   23    23     1     0     0
SMALL
No Charge or Current Charge


@<TRIPOS>ATOM
      1 C2           1.8840     0.0520    -0.4580 c3         1 8YU       0.192100
      2 N1           2.6470     0.1030     0.8050 n8         1 8YU      -0.992200
      3 C4          -0.3050    -1.2390    -0.0850 ca         1 8YU      -0.057800
      4 C5          -1.6970    -1.2650     0.1280 ca         1 8YU      -0.118000
      5 C6          -2.4270    -0.0740     0.2180 ca         1 8YU      -0.102000
      6 C7          -1.7720     1.1580     0.0960 ca         1 8YU      -0.118000
      7 C8          -0.3810     1.2130    -0.1180 ca         1 8YU      -0.057800
      8 C81          0.2810     2.5840    -0.2440 c3         1 8YU      -0.049800
      9 C3           0.3680     0.0080    -0.2130 ca         1 8YU      -0.083300
     10 H26          2.1510     0.9280    -1.0640 h1         1 8YU       0.033200
     11 H27          2.2060    -0.8300    -1.0260 h1         1 8YU       0.033200
     12 H35          2.4480    -0.7490     1.3400 hn         1 8YU       0.392000
     13 H40          0.8360    -2.7320    -1.1870 hc         1 8YU       0.042367
     14 H41          1.2790    -2.6090     0.5270 hc         1 8YU       0.042367
     15 H42         -0.2130    -3.4200     0.0550 hc         1 8YU       0.042367
     16 H43         -2.2180    -2.2150     0.2250 ha         1 8YU       0.110000
     17 H44         -3.5020    -0.1050     0.3830 ha         1 8YU       0.111000
     18 H45         -2.3520     2.0750     0.1670 ha         1 8YU       0.110000
     19 H46          1.1200     2.6870     0.4530 hc         1 8YU       0.042367
     20 H47          0.6600     2.7460    -1.2600 hc         1 8YU       0.042367
     21 H48         -0.4200     3.3980    -0.0250 hc         1 8YU       0.042367
     22 H2           3.6490     0.0330     0.5910 hn         1 8YU       0.392000
     23 C41          0.4400    -2.5700    -0.1770 c3         1 8YU      -0.049800
@<TRIPOS>BOND
     1     1     2 1   
     2     1     9 1   
     3     1    10 1   
     4     1    11 1   
     5     2    12 1   
     6     2    22 1   
     7     3     4 ar  
     8     3     9 ar  
     9     3    23 1   
    10     4     5 ar  
    11     4    16 1   
    12     5     6 ar  
    13     5    17 1   
    14     6     7 ar  
    15     6    18 1   
    16     7     8 1   
    17     7     9 ar  
    18     8    19 1   
    19     8    20 1   
    20     8    21 1   
    21    13    23 1   
    22    14    23 1   
    23    15    23 1   
@<TRIPOS>SUBSTRUCTURE
     1 8YU         1 TEMP              0 ****  ****    0 ROOT
