@<TRIPOS>MOLECULE
8YU
   23    23     1     0     0
SMALL
bcc


@<TRIPOS>ATOM
      1 C2           1.8480     0.0160    -0.4560 c3         1 8YU       0.192100
      2 N1           2.5410     0.2500     0.8080 n8         1 8YU      -0.881800
      3 C4          -0.3100    -1.2490    -0.1130 ca         1 8YU      -0.057800
      4 C5          -1.6840    -1.2590     0.1180 ca         1 8YU      -0.136000
      5 C6          -2.3940    -0.0750     0.2290 ca         1 8YU      -0.120000
      6 C7          -1.7300     1.1370     0.1170 ca         1 8YU      -0.136000
      7 C8          -0.3580     1.1790    -0.1130 ca         1 8YU      -0.057800
      8 C81          0.3370     2.5050    -0.2320 c3         1 8YU      -0.049800
      9 C3           0.3560    -0.0220    -0.2390 ca         1 8YU      -0.083300
     10 H26          2.1000     0.8350    -1.1330 h1         1 8YU       0.033200
     11 H27          2.1730    -0.8990    -0.9650 h1         1 8YU       0.033200
     12 H35          2.3640    -0.5240     1.4370 hn         1 8YU       0.336800
     13 H40          0.7850    -2.7320    -1.2430 hc         1 8YU       0.042367
     14 H41          1.2940    -2.6000     0.4290 hc         1 8YU       0.042367
     15 H42         -0.2260    -3.3920     0.0350 hc         1 8YU       0.042367
     16 H43         -2.2000    -2.2070     0.2170 ha         1 8YU       0.128000
     17 H44         -3.4620    -0.0960     0.4080 ha         1 8YU       0.129000
     18 H45         -2.2830     2.0640     0.2120 ha         1 8YU       0.128000
     19 H46          1.2140     2.5490     0.4150 hc         1 8YU       0.042367
     20 H47          0.6830     2.6870    -1.2520 hc         1 8YU       0.042367
     21 H48         -0.3300     3.3240     0.0370 hc         1 8YU       0.042367
     22 H2           3.5400     0.2430     0.6420 hn         1 8YU       0.336800
     23 C41          0.4240    -2.5580    -0.2280 c3         1 8YU      -0.049800
@<TRIPOS>BOND
     1     1     2 1   
     2     1     9 1   
     3     1    10 1   
     4     1    11 1   
     5     2    12 1   
     6     2    22 1   
     7     3     4 ar  
     8     3     9 ar  
     9     3    23 1   
    10     4     5 ar  
    11     4    16 1   
    12     5     6 ar  
    13     5    17 1   
    14     6     7 ar  
    15     6    18 1   
    16     7     8 1   
    17     7     9 ar  
    18     8    19 1   
    19     8    20 1   
    20     8    21 1   
    21    13    23 1   
    22    14    23 1   
    23    15    23 1   
@<TRIPOS>SUBSTRUCTURE
     1 8YU         1 TEMP              0 ****  ****    0 ROOT
