@<TRIPOS>MOLECULE
8YV
   22    21     1     0     0
SMALL
abcg2


@<TRIPOS>ATOM
      1 C2          -0.6050    -0.0160     0.2940 c3         1 8YV       0.130300
      2 C4           1.7800    -0.5410    -0.1630 c          1 8YV       0.416100
      3 O4          -0.4820    -0.6980     1.5220 oh         1 8YV      -0.716000
      4 O1           1.9530     1.7710    -0.5530 o          1 8YV      -0.691000
      5 C5           2.4060     0.8400     0.1340 c          1 8YV       0.661000
      6 O2           3.2890     0.8560     1.0000 o          1 8YV      -0.691000
      7 O            2.3910    -1.5710     0.0140 o          1 8YV      -0.566100
      8 C3           0.3760    -0.5950    -0.7350 c3         1 8YV       0.024300
      9 O3           0.0260    -1.9180    -1.0440 oh         1 8YV      -0.750000
     10 C1          -2.0540    -0.0310    -0.2180 c3         1 8YV       0.142300
     11 O5          -2.1490     0.5630    -1.4930 oh         1 8YV      -0.700000
     12 C           -2.9810     0.6350     0.7860 c3         1 8YV       0.119600
     13 O6          -4.3070     0.5350     0.3210 oh         1 8YV      -0.716000
     14 H1          -0.3180     1.0220     0.4910 h1         1 8YV       0.102700
     15 H2          -0.6790    -1.6290     1.3700 ho         1 8YV       0.497000
     16 H4           0.3590     0.0290    -1.6350 h1         1 8YV       0.100700
     17 H5           0.7620    -2.4800    -0.7590 ho         1 8YV       0.515000
     18 H6          -2.3720    -1.0710    -0.3510 h1         1 8YV       0.083700
     19 H7          -1.9570     1.5040    -1.4100 ho         1 8YV       0.498000
     20 H8          -2.8590     0.1530     1.7620 h1         1 8YV       0.026700
     21 H9          -2.6750     1.6860     0.9110 h1         1 8YV       0.026700
     22 H10         -4.8870     0.8760     1.0070 ho         1 8YV       0.487000
@<TRIPOS>BOND
     1     1     3 1   
     2     1     8 1   
     3     1    10 1   
     4     1    14 1   
     5     2     5 1   
     6     2     7 2   
     7     2     8 1   
     8     3    15 1   
     9     4     5 1   
    10     5     6 1   
    11     8     9 1   
    12     8    16 1   
    13     9    17 1   
    14    10    11 1   
    15    10    12 1   
    16    10    18 1   
    17    11    19 1   
    18    12    13 1   
    19    12    20 1   
    20    12    21 1   
    21    13    22 1   
@<TRIPOS>SUBSTRUCTURE
     1 8YV         1 TEMP              0 ****  ****    0 ROOT
