@<TRIPOS>MOLECULE
8YV
   22    21     1     0     0
SMALL
No Charge or Current Charge


@<TRIPOS>ATOM
      1 C2          -0.5710    -0.1210     0.4090 c3         1 8YV       0.130300
      2 C4           1.9120    -0.5840    -0.1440 c          1 8YV       0.416100
      3 O4          -0.6370    -0.9840     1.5530 oh         1 8YV      -0.716000
      4 O1           1.9370     1.7870    -0.7560 o          1 8YV      -0.691000
      5 C5           2.4160     0.9430    -0.0030 c          1 8YV       0.661000
      6 O2           3.2710     1.2050     0.8400 o          1 8YV      -0.691000
      7 O            2.6620    -1.5510     0.0470 o          1 8YV      -0.566100
      8 C3           0.4270    -0.7940    -0.5780 c3         1 8YV       0.024300
      9 O3           0.0870    -2.2130    -0.7000 oh         1 8YV      -0.750000
     10 C1          -1.9960     0.0880    -0.1990 c3         1 8YV       0.142300
     11 O5          -1.9500     0.9810    -1.3230 oh         1 8YV      -0.700000
     12 C           -3.0100     0.6940     0.8080 c3         1 8YV       0.119600
     13 O6          -4.2120     1.0840     0.1120 oh         1 8YV      -0.716000
     14 H1          -0.1930     0.8720     0.6970 h1         1 8YV       0.102700
     15 H2          -0.4780    -1.8760     1.1510 ho         1 8YV       0.497000
     16 H4           0.3370    -0.2900    -1.5510 h1         1 8YV       0.100700
     17 H5           0.9190    -2.6860    -0.9560 ho         1 8YV       0.515000
     18 H6          -2.3830    -0.8920    -0.5160 h1         1 8YV       0.083700
     19 H7          -2.8590     1.3740    -1.3210 ho         1 8YV       0.498000
     20 H8          -3.2400    -0.0500     1.5830 h1         1 8YV       0.026700
     21 H9          -2.5580     1.5650     1.3030 h1         1 8YV       0.026700
     22 H10         -4.8640     1.3680     0.7950 ho         1 8YV       0.487000
@<TRIPOS>BOND
     1     1     3 1   
     2     1     8 1   
     3     1    10 1   
     4     1    14 1   
     5     2     5 1   
     6     2     7 2   
     7     2     8 1   
     8     3    15 1   
     9     4     5 1   
    10     5     6 1   
    11     8     9 1   
    12     8    16 1   
    13     9    17 1   
    14    10    11 1   
    15    10    12 1   
    16    10    18 1   
    17    11    19 1   
    18    12    13 1   
    19    12    20 1   
    20    12    21 1   
    21    13    22 1   
@<TRIPOS>SUBSTRUCTURE
     1 8YV         1 TEMP              0 ****  ****    0 ROOT
