@<TRIPOS>MOLECULE
8YW
   38    40     1     0     0
SMALL
bcc


@<TRIPOS>ATOM
      1 O24         -7.3020    -1.2980    -1.0590 o          1 8YW      -0.207000
      2 O25         -7.7440     0.0580     0.5260 o          1 8YW      -0.207000
      3 N23         -6.9730    -0.4750    -0.2370 no         1 8YW       0.314200
      4 C3          -5.5710    -0.1040    -0.1640 ca         1 8YW      -0.177200
      5 C4          -4.6670    -0.6860    -1.0420 ca         1 8YW      -0.060500
      6 C5          -3.3370    -0.3250    -0.9610 ca         1 8YW      -0.133000
      7 C2          -5.1630     0.8270     0.7780 ca         1 8YW      -0.060500
      8 C1          -3.8240     1.1790     0.8410 ca         1 8YW      -0.133000
      9 C6          -2.8960     0.6050    -0.0200 ca         1 8YW      -0.073300
     10 C7          -1.4230     0.9470     0.0400 c3         1 8YW       0.162400
     11 O22         -1.1480     2.0950     0.7960 oh         1 8YW      -0.582800
     12 C9          -0.6340    -0.2660     0.5510 c3         1 8YW       0.065000
     13 N10          0.7850    -0.0260     0.5330 ns         1 8YW      -0.569900
     14 C11          1.6450    -0.6530    -0.2900 c          1 8YW       0.688700
     15 O12          1.3170    -1.5660    -1.0360 o          1 8YW      -0.597100
     16 C13          3.0630    -0.1890    -0.2210 ca         1 8YW      -0.157600
     17 C18          4.0640    -1.1340    -0.5050 ca         1 8YW      -0.062000
     18 C17          5.3610    -0.6990    -0.4600 ca         1 8YW       0.042100
     19 O19          6.4940    -1.4030    -0.6840 os         1 8YW      -0.316900
     20 C20          7.5830    -0.5140    -0.4670 c5         1 8YW       0.329200
     21 O21          7.0260     0.7730    -0.2210 os         1 8YW      -0.317900
     22 C16          5.6880     0.6210    -0.1790 ca         1 8YW       0.078100
     23 C15          4.7240     1.5640     0.0790 ca         1 8YW      -0.127000
     24 C14          3.3950     1.1310     0.0600 ca         1 8YW      -0.103000
     25 H1          -4.9860    -1.4070    -1.7810 ha         1 8YW       0.171500
     26 H2          -2.6340    -0.7740    -1.6520 ha         1 8YW       0.149000
     27 H3          -5.8650     1.2820     1.4610 ha         1 8YW       0.171500
     28 H4          -3.5240     1.9150     1.5740 ha         1 8YW       0.149000
     29 H5          -1.0850     1.1670    -0.9780 h1         1 8YW       0.100700
     30 H6          -1.2580     1.8940     1.7330 ho         1 8YW       0.403000
     31 H7          -0.9570    -0.5040     1.5690 h1         1 8YW       0.068700
     32 H8          -0.8470    -1.1400    -0.0620 h1         1 8YW       0.068700
     33 H9           1.1390     0.6700     1.1680 hn         1 8YW       0.320500
     34 H10          3.8190    -2.1610    -0.7400 ha         1 8YW       0.173000
     35 H11          8.1620    -0.8370     0.4020 h2         1 8YW       0.068200
     36 H12          4.9740     2.5970     0.2790 ha         1 8YW       0.157000
     37 H13          2.6200     1.8650     0.2390 ha         1 8YW       0.139000
     38 H15          8.2160    -0.4800    -1.3550 h2         1 8YW       0.068200
@<TRIPOS>BOND
     1     1     3 1   
     2     2     3 1   
     3     3     4 1   
     4     4     5 ar  
     5     4     7 ar  
     6     5     6 ar  
     7     5    25 1   
     8     6     9 ar  
     9     6    26 1   
    10     7     8 ar  
    11     7    27 1   
    12     8     9 ar  
    13     8    28 1   
    14     9    10 1   
    15    10    11 1   
    16    10    12 1   
    17    10    29 1   
    18    11    30 1   
    19    12    13 1   
    20    12    31 1   
    21    12    32 1   
    22    13    14 1   
    23    13    33 1   
    24    14    15 2   
    25    14    16 1   
    26    16    17 ar  
    27    16    24 ar  
    28    17    18 ar  
    29    17    34 1   
    30    18    19 1   
    31    18    22 ar  
    32    19    20 1   
    33    20    21 1   
    34    20    35 1   
    35    20    38 1   
    36    21    22 1   
    37    22    23 ar  
    38    23    24 ar  
    39    23    36 1   
    40    24    37 1   
@<TRIPOS>SUBSTRUCTURE
     1 8YW         1 TEMP              0 ****  ****    0 ROOT
