@<TRIPOS>MOLECULE
8YW
   38    40     1     0     0
SMALL
No Charge or Current Charge


@<TRIPOS>ATOM
      1 O24         -7.6490    -1.0530    -1.1680 o          1 8YW      -0.397000
      2 O25         -7.7970    -0.1400     0.8080 o          1 8YW      -0.397000
      3 N23         -7.1480    -0.4830    -0.1890 no         1 8YW       0.694200
      4 C3          -5.6780    -0.1940    -0.2120 ca         1 8YW      -0.177200
      5 C4          -4.8900    -0.5640    -1.3270 ca         1 8YW      -0.042500
      6 C5          -3.5110    -0.2910    -1.3440 ca         1 8YW      -0.115000
      7 C2          -5.0550     0.4550     0.8790 ca         1 8YW      -0.042500
      8 C1          -3.6760     0.7250     0.8550 ca         1 8YW      -0.115000
      9 C6          -2.8890     0.3510    -0.2550 ca         1 8YW      -0.073300
     10 C7          -1.3870     0.6380    -0.3010 c3         1 8YW       0.185600
     11 O22         -1.1720     2.0430    -0.5080 oh         1 8YW      -0.645000
     12 C9          -0.6400     0.1640     0.9780 c3         1 8YW       0.065000
     13 N10          0.8230     0.3130     0.8900 ns         1 8YW      -0.502900
     14 C11          1.6470    -0.4700     0.1110 c          1 8YW       0.621700
     15 O12          1.2000    -1.4020    -0.5440 o          1 8YW      -0.597100
     16 C13          3.1210    -0.1230     0.1110 ca         1 8YW      -0.157600
     17 C18          4.0110    -0.9000    -0.6770 ca         1 8YW      -0.044000
     18 C17          5.3730    -0.5770    -0.6740 ca         1 8YW       0.042100
     19 O19          6.3430    -1.2180    -1.3760 os         1 8YW      -0.340100
     20 C20          7.5640    -0.4990    -0.9760 c5         1 8YW       0.375600
     21 O21          7.2050     0.6120    -0.0790 os         1 8YW      -0.341100
     22 C16          5.8640     0.4610     0.0620 ca         1 8YW       0.078100
     23 C15          5.0290     1.2570     0.8520 ca         1 8YW      -0.109000
     24 C14          3.6490     0.9610     0.8760 ca         1 8YW      -0.085000
     25 H1          -5.3370    -1.0630    -2.1850 ha         1 8YW       0.153500
     26 H2          -2.9250    -0.5820    -2.2130 ha         1 8YW       0.131000
     27 H3          -5.6340     0.7560     1.7520 ha         1 8YW       0.153500
     28 H4          -3.2260     1.2300     1.7060 ha         1 8YW       0.131000
     29 H5          -0.9620     0.0760    -1.1450 h1         1 8YW       0.100700
     30 H6          -1.7990     2.5160     0.0820 ho         1 8YW       0.442000
     31 H7          -0.9940     0.7300     1.8490 h1         1 8YW       0.068700
     32 H8          -0.8740    -0.8940     1.1540 h1         1 8YW       0.068700
     33 H9           1.2600     1.0760     1.3910 hn         1 8YW       0.320500
     34 H10          3.6550    -1.7340    -1.2780 ha         1 8YW       0.155000
     35 H11          8.2310    -1.1890    -0.4470 h2         1 8YW       0.068200
     36 H12          5.4360     2.0820     1.4310 ha         1 8YW       0.139000
     37 H13          3.0050     1.5820     1.4930 ha         1 8YW       0.121000
     38 H15          8.0640    -0.1030    -1.8680 h2         1 8YW       0.068200
@<TRIPOS>BOND
     1     1     3 1   
     2     2     3 1   
     3     3     4 1   
     4     4     5 ar  
     5     4     7 ar  
     6     5     6 ar  
     7     5    25 1   
     8     6     9 ar  
     9     6    26 1   
    10     7     8 ar  
    11     7    27 1   
    12     8     9 ar  
    13     8    28 1   
    14     9    10 1   
    15    10    11 1   
    16    10    12 1   
    17    10    29 1   
    18    11    30 1   
    19    12    13 1   
    20    12    31 1   
    21    12    32 1   
    22    13    14 1   
    23    13    33 1   
    24    14    15 2   
    25    14    16 1   
    26    16    17 ar  
    27    16    24 ar  
    28    17    18 ar  
    29    17    34 1   
    30    18    19 1   
    31    18    22 ar  
    32    19    20 1   
    33    20    21 1   
    34    20    35 1   
    35    20    38 1   
    36    21    22 1   
    37    22    23 ar  
    38    23    24 ar  
    39    23    36 1   
    40    24    37 1   
@<TRIPOS>SUBSTRUCTURE
     1 8YW         1 TEMP              0 ****  ****    0 ROOT
