@<TRIPOS>MOLECULE
8YX
   15    15     1     0     0
SMALL
No Charge or Current Charge


@<TRIPOS>ATOM
      1 C02        -30.9930    34.1460   -37.2680 ca         1 8YX       0.275000
      2 C03        -32.2760    34.6300   -36.9610 ca         1 8YX      -0.128000
      3 C04        -32.5020    35.3300   -35.7640 ca         1 8YX      -0.010900
      4 C06        -31.4480    35.5530   -34.8630 ca         1 8YX      -0.067000
      5 C07        -30.1600    35.0740   -35.1570 ca         1 8YX      -0.077900
      6 C09        -29.9220    34.3690   -36.3560 ca         1 8YX       0.117100
      7 N01        -30.7970    33.4600   -38.4510 nv         1 8YX      -1.063000
      8 O10        -28.6560    33.9020   -36.6280 oh         1 8YX      -0.535100
      9 Br1        -34.2530    35.9830   -35.3600 br         1 8YX      -0.092100
     10 Br2        -28.7420    35.3940   -33.9040 br         1 8YX      -0.096100
     11 H031       -33.1000    34.4650   -37.6500 ha         1 8YX       0.133000
     12 H061       -31.6300    36.0970   -33.9380 ha         1 8YX       0.146000
     13 H011       -29.8990    33.0010   -38.6000 hn         1 8YX       0.458500
     14 H012       -31.5930    33.1290   -38.9940 hn         1 8YX       0.458500
     15 H101       -28.0710    34.1610   -35.8820 ho         1 8YX       0.482000
@<TRIPOS>BOND
     1     1     2 ar  
     2     1     6 ar  
     3     1     7 1   
     4     2     3 ar  
     5     2    11 1   
     6     3     4 ar  
     7     3     9 1   
     8     4     5 ar  
     9     4    12 1   
    10     5     6 ar  
    11     5    10 1   
    12     6     8 1   
    13     7    13 1   
    14     7    14 1   
    15     8    15 1   
@<TRIPOS>SUBSTRUCTURE
     1 8YX         1 TEMP              0 ****  ****    0 ROOT
