@<TRIPOS>MOLECULE
8YX
   15    15     1     0     0
SMALL
abcg2


@<TRIPOS>ATOM
      1 C02        -30.9830    34.1790   -37.2550 ca         1 8YX       0.275000
      2 C03        -32.2580    34.6440   -36.9470 ca         1 8YX      -0.128000
      3 C04        -32.4850    35.3240   -35.7590 ca         1 8YX      -0.010900
      4 C06        -31.4740    35.5610   -34.8510 ca         1 8YX      -0.067000
      5 C07        -30.2010    35.0920   -35.1680 ca         1 8YX      -0.077900
      6 C09        -29.9290    34.4090   -36.3440 ca         1 8YX       0.117100
      7 N01        -30.7150    33.5530   -38.4490 nv         1 8YX      -1.063000
      8 O10        -28.7270    33.9360   -36.7170 oh         1 8YX      -0.535100
      9 BR1        -34.2310    35.9300   -35.3690 br         1 8YX      -0.092100
     10 BR2        -28.7990    35.4170   -33.9430 br         1 8YX      -0.096100
     11 H031       -33.0630    34.4620   -37.6470 ha         1 8YX       0.133000
     12 H061       -31.6520    36.0900   -33.9260 ha         1 8YX       0.146000
     13 H011       -29.9400    32.9090   -38.4540 hn         1 8YX       0.458500
     14 H012       -31.5180    33.1810   -38.9300 hn         1 8YX       0.458500
     15 H101       -28.0670    34.0080   -36.0180 ho         1 8YX       0.482000
@<TRIPOS>BOND
     1     1     2 ar  
     2     1     6 ar  
     3     1     7 1   
     4     2     3 ar  
     5     2    11 1   
     6     3     4 ar  
     7     3     9 1   
     8     4     5 ar  
     9     4    12 1   
    10     5     6 ar  
    11     5    10 1   
    12     6     8 1   
    13     7    13 1   
    14     7    14 1   
    15     8    15 1   
@<TRIPOS>SUBSTRUCTURE
     1 8YX         1 TEMP              0 ****  ****    0 ROOT
