@<TRIPOS>MOLECULE
8YZ
   77    81     1     0     0
SMALL
abcg2


@<TRIPOS>ATOM
      1 N1           3.6430     7.5800    -0.7730 n1         1 8YZ      -0.503000
      2 C15          3.9140     6.4890    -0.5180 cg         1 8YZ       0.347000
      3 C14          4.2510     5.1380    -0.2040 ca         1 8YZ      -0.054000
      4 C13          5.5150     4.8410     0.3040 ca         1 8YZ      -0.077000
      5 C12          5.8260     3.5230     0.5950 ca         1 8YZ      -0.099000
      6 C11          4.8920     2.5180     0.3900 ca         1 8YZ      -0.030000
      7 C16          3.3120     4.1290    -0.4190 ca         1 8YZ      -0.076000
      8 C10          3.6280     2.8140    -0.1170 ca         1 8YZ      -0.115300
      9 C9           2.6050     1.7290    -0.2970 c3         1 8YZ       0.220900
     10 O3           3.2630     0.5900    -0.8120 os         1 8YZ      -0.337100
     11 C8           2.7070    -0.6320    -0.6400 ca         1 8YZ       0.173100
     12 C4           3.5620    -1.7300    -0.6280 ca         1 8YZ      -0.114300
     13 C3           5.0620    -1.6080    -0.7180 c3         1 8YZ       0.216100
     14 N            5.6870    -2.1560     0.4760 n7         1 8YZ      -0.861400
     15 C1           7.1350    -2.0550     0.4580 c3         1 8YZ       0.023500
     16 C2           7.7130    -0.6500     0.7820 c          1 8YZ       0.711000
     17 O2           6.9350     0.2030     1.2520 o          1 8YZ      -0.737000
     18 O1           8.9330    -0.5050     0.5640 o          1 8YZ      -0.737000
     19 C            7.7490    -3.0800     1.3970 c3         1 8YZ       0.187600
     20 O            7.4150    -2.7390     2.7270 oh         1 8YZ      -0.643000
     21 C17          1.3270    -0.7970    -0.5030 ca         1 8YZ      -0.282000
     22 C18          0.7940    -2.0710    -0.3490 ca         1 8YZ       0.159100
     23 C6           1.6230    -3.2000    -0.3350 ca         1 8YZ      -0.148300
     24 C7           1.0480    -4.5750    -0.1620 c3         1 8YZ      -0.020800
     25 C5           2.9840    -2.9900    -0.4740 ca         1 8YZ      -0.032000
     26 O4          -0.5270    -2.3130    -0.2120 os         1 8YZ      -0.354100
     27 C19         -1.4310    -1.2380    -0.2260 c3         1 8YZ       0.211900
     28 C20         -2.8390    -1.7570    -0.1010 ca         1 8YZ      -0.083300
     29 C34         -3.0960    -3.1030     0.1210 ca         1 8YZ      -0.075000
     30 C33         -4.4030    -3.5550     0.2370 ca         1 8YZ      -0.121000
     31 C32         -5.4510    -2.6630     0.1140 ca         1 8YZ      -0.100000
     32 C23         -5.2150    -1.3070    -0.1200 cp         1 8YZ      -0.041000
     33 C21         -3.8960    -0.8390    -0.2100 ca         1 8YZ      -0.055300
     34 C22         -3.5820     0.6200    -0.3970 c3         1 8YZ      -0.056800
     35 C24         -6.3890    -0.4160    -0.2720 cp         1 8YZ      -0.027000
     36 C31         -6.5770     0.3540    -1.4200 ca         1 8YZ      -0.099000
     37 C30         -7.7100     1.1360    -1.5690 ca         1 8YZ      -0.110000
     38 C27         -8.6780     1.1740    -0.5740 ca         1 8YZ       0.052100
     39 O5          -9.7770     1.9420    -0.7610 os         1 8YZ      -0.331100
     40 C28        -10.8500     1.6450     0.1200 c6         1 8YZ       0.118600
     41 C29        -10.3370     1.4890     1.5310 c6         1 8YZ       0.118600
     42 O6          -9.3970     0.4260     1.5960 os         1 8YZ      -0.331100
     43 C26         -8.4950     0.4160     0.5870 ca         1 8YZ       0.053100
     44 C25         -7.3600    -0.3710     0.7240 ca         1 8YZ      -0.099000
     45 H1           6.2380     5.6300     0.4620 ha         1 8YZ       0.115000
     46 H2           6.8020     3.2660     0.9840 ha         1 8YZ       0.155000
     47 H3           5.1720     1.5000     0.6270 ha         1 8YZ       0.192000
     48 H4           2.3390     4.3800    -0.8240 ha         1 8YZ       0.107000
     49 H5           2.1410     1.4980     0.6690 h1         1 8YZ       0.033200
     50 H6           1.8070     2.0680    -0.9680 h1         1 8YZ       0.033200
     51 H7           5.4150    -2.1920    -1.5760 h1         1 8YZ       0.041700
     52 H8           5.3490    -0.5710    -0.9170 h1         1 8YZ       0.041700
     53 H9           5.3480    -1.6280     1.2730 hn         1 8YZ       0.428000
     54 H11          7.4750    -2.3330    -0.5470 h1         1 8YZ       0.038700
     55 H13          7.3660    -4.0740     1.1330 h1         1 8YZ       0.005700
     56 H14          8.8340    -3.0980     1.2470 h1         1 8YZ       0.005700
     57 H15          7.7710    -3.4180     3.3080 ho         1 8YZ       0.407000
     58 H16          0.6790     0.0680    -0.5300 ha         1 8YZ       0.110000
     59 H17          0.3120    -4.8120    -0.9330 hc         1 8YZ       0.033033
     60 H18          1.8340    -5.3270    -0.2120 hc         1 8YZ       0.033033
     61 H19          0.5450    -4.6850     0.8010 hc         1 8YZ       0.033033
     62 H20          3.6440    -3.8500    -0.4510 ha         1 8YZ       0.129000
     63 H21         -1.2140    -0.5440     0.5970 h1         1 8YZ       0.041200
     64 H22         -1.3350    -0.6630    -1.1560 h1         1 8YZ       0.041200
     65 H23         -2.2830    -3.8110     0.2050 ha         1 8YZ       0.135000
     66 H24         -4.5990    -4.6050     0.4110 ha         1 8YZ       0.112000
     67 H25         -6.4720    -3.0180     0.1810 ha         1 8YZ       0.112000
     68 H26         -3.2360     0.8340    -1.4110 hc         1 8YZ       0.045367
     69 H27         -4.4460     1.2520    -0.2090 hc         1 8YZ       0.045367
     70 H28         -2.7930     0.9480     0.2810 hc         1 8YZ       0.045367
     71 H29         -5.8470     0.3270    -2.2190 ha         1 8YZ       0.124000
     72 H30         -7.8590     1.7200    -2.4690 ha         1 8YZ       0.126000
     73 H31        -11.5550     2.4730     0.0610 h1         1 8YZ       0.064200
     74 H32        -11.3600     0.7320    -0.2040 h1         1 8YZ       0.064200
     75 H33         -9.8750     2.4210     1.8740 h1         1 8YZ       0.065200
     76 H34        -11.1530     1.2390     2.2080 h1         1 8YZ       0.065200
     77 H35         -7.2380    -0.9490     1.6330 ha         1 8YZ       0.131000
@<TRIPOS>BOND
     1     1     2 3   
     2     2     3 1   
     3     3     4 ar  
     4     3     7 ar  
     5     4     5 ar  
     6     4    45 1   
     7     5     6 ar  
     8     5    46 1   
     9     6     8 ar  
    10     6    47 1   
    11     7     8 ar  
    12     7    48 1   
    13     8     9 1   
    14     9    10 1   
    15     9    49 1   
    16     9    50 1   
    17    10    11 1   
    18    11    12 ar  
    19    11    21 ar  
    20    12    13 1   
    21    12    25 ar  
    22    13    14 1   
    23    13    51 1   
    24    13    52 1   
    25    14    15 1   
    26    14    53 1   
    27    15    16 1   
    28    15    19 1   
    29    15    54 1   
    30    16    17 1   
    31    16    18 1   
    32    19    20 1   
    33    19    55 1   
    34    19    56 1   
    35    20    57 1   
    36    21    22 ar  
    37    21    58 1   
    38    22    23 ar  
    39    22    26 1   
    40    23    24 1   
    41    23    25 ar  
    42    24    59 1   
    43    24    60 1   
    44    24    61 1   
    45    25    62 1   
    46    26    27 1   
    47    27    28 1   
    48    27    63 1   
    49    27    64 1   
    50    28    29 ar  
    51    28    33 ar  
    52    29    30 ar  
    53    29    65 1   
    54    30    31 ar  
    55    30    66 1   
    56    31    32 ar  
    57    31    67 1   
    58    32    33 ar  
    59    32    35 1   
    60    33    34 1   
    61    34    68 1   
    62    34    69 1   
    63    34    70 1   
    64    35    36 ar  
    65    35    44 ar  
    66    36    37 ar  
    67    36    71 1   
    68    37    38 ar  
    69    37    72 1   
    70    38    39 1   
    71    38    43 ar  
    72    39    40 1   
    73    40    41 1   
    74    40    73 1   
    75    40    74 1   
    76    41    42 1   
    77    41    75 1   
    78    41    76 1   
    79    42    43 1   
    80    43    44 ar  
    81    44    77 1   
@<TRIPOS>SUBSTRUCTURE
     1 8YZ         1 TEMP              0 ****  ****    0 ROOT
