@<TRIPOS>MOLECULE
8YZ
   77    81     1     0     0
SMALL
No Charge or Current Charge


@<TRIPOS>ATOM
      1 N1           3.7420     7.5780    -1.2050 n1         1 8YZ      -0.503000
      2 C15          4.0240     6.5340    -0.7620 cg         1 8YZ       0.347000
      3 C14          4.3720     5.2540    -0.2060 ca         1 8YZ      -0.054000
      4 C13          5.6340     5.0620     0.3880 ca         1 8YZ      -0.077000
      5 C12          5.9720     3.8110     0.9320 ca         1 8YZ      -0.099000
      6 C11          5.0520     2.7490     0.8840 ca         1 8YZ      -0.030000
      7 C16          3.4520     4.1880    -0.2540 ca         1 8YZ      -0.076000
      8 C10          3.7870     2.9310     0.2880 ca         1 8YZ      -0.115300
      9 C9           2.7840     1.7830     0.2380 c3         1 8YZ       0.220900
     10 O3           3.4630     0.5900    -0.1870 os         1 8YZ      -0.337100
     11 C8           2.8260    -0.6290    -0.3210 ca         1 8YZ       0.173100
     12 C4           3.5990    -1.7610    -0.6570 ca         1 8YZ      -0.114300
     13 C3           5.1090    -1.6680    -0.8670 c3         1 8YZ       0.216100
     14 N            5.8270    -2.3550     0.2230 n7         1 8YZ      -0.861400
     15 C1           7.3370    -2.3170     0.1440 c3         1 8YZ       0.023500
     16 C2           7.9990    -0.8850     0.2320 c          1 8YZ       0.711000
     17 O2           7.4770    -0.0230     0.9290 o          1 8YZ      -0.737000
     18 O1           8.9480    -0.6500    -0.5060 o          1 8YZ      -0.737000
     19 C            7.9800    -3.2520     1.2080 c3         1 8YZ       0.187600
     20 O            7.5710    -2.9070     2.5420 oh         1 8YZ      -0.643000
     21 C17          1.4330    -0.7600    -0.1350 ca         1 8YZ      -0.282000
     22 C18          0.8090    -2.0160    -0.2870 ca         1 8YZ       0.159100
     23 C6           1.5800    -3.1460    -0.6250 ca         1 8YZ      -0.148300
     24 C7           0.9230    -4.5120    -0.7920 c3         1 8YZ      -0.020800
     25 C5           2.9690    -3.0100    -0.8070 ca         1 8YZ      -0.032000
     26 O4          -0.5510    -2.1820    -0.1140 os         1 8YZ      -0.354100
     27 C19         -1.4280    -1.0980     0.2420 c3         1 8YZ       0.211900
     28 C20         -2.8720    -1.6080     0.3720 ca         1 8YZ      -0.083300
     29 C34         -3.0950    -2.9250     0.8310 ca         1 8YZ      -0.075000
     30 C33         -4.3950    -3.4290     0.9610 ca         1 8YZ      -0.121000
     31 C32         -5.4900    -2.6250     0.6280 ca         1 8YZ      -0.100000
     32 C23         -5.3130    -1.3000     0.1690 cp         1 8YZ      -0.041000
     33 C21         -3.9870    -0.7760     0.0660 ca         1 8YZ      -0.055300
     34 C22         -3.7540     0.6850    -0.3400 c3         1 8YZ      -0.056800
     35 C24         -6.5270    -0.5060    -0.1890 cp         1 8YZ      -0.027000
     36 C31         -6.6810     0.0570    -1.4810 ca         1 8YZ      -0.099000
     37 C30         -7.8330     0.7870    -1.8230 ca         1 8YZ      -0.110000
     38 C27         -8.8580     0.9590    -0.8800 ca         1 8YZ       0.052100
     39 O5          -9.9940     1.6590    -1.2340 os         1 8YZ      -0.331100
     40 C28        -11.1450     1.5400    -0.3680 c6         1 8YZ       0.118600
     41 C29        -10.7000     1.6080     1.1100 c6         1 8YZ       0.118600
     42 O6          -9.7040     0.5950     1.3710 os         1 8YZ      -0.331100
     43 C26         -8.7180     0.4130     0.4200 ca         1 8YZ       0.053100
     44 C25         -7.5700    -0.3240     0.7510 ca         1 8YZ      -0.099000
     45 H1           6.3530     5.8780     0.4300 ha         1 8YZ       0.115000
     46 H2           6.9480     3.6620     1.3890 ha         1 8YZ       0.155000
     47 H3           5.3260     1.7820     1.3060 ha         1 8YZ       0.192000
     48 H4           2.4760     4.3370    -0.7120 ha         1 8YZ       0.107000
     49 H5           2.3470     1.6430     1.2360 h1         1 8YZ       0.033200
     50 H6           1.9750     2.0320    -0.4620 h1         1 8YZ       0.033200
     51 H7           5.3550    -2.1320    -1.8330 h1         1 8YZ       0.041700
     52 H8           5.4220    -0.6170    -0.9340 h1         1 8YZ       0.041700
     53 H9           5.5720    -1.8920     1.1040 hn         1 8YZ       0.428000
     54 H11          7.6360    -2.7220    -0.8320 h1         1 8YZ       0.038700
     55 H13          7.6870    -4.2880     0.9890 h1         1 8YZ       0.005700
     56 H14          9.0730    -3.1960     1.1220 h1         1 8YZ       0.005700
     57 H15          7.9440    -3.5930     3.1360 ho         1 8YZ       0.407000
     58 H16          0.8390     0.1090     0.1220 ha         1 8YZ       0.110000
     59 H17          0.1650    -4.4890    -1.5840 hc         1 8YZ       0.033033
     60 H18          1.6520    -5.2880    -1.0570 hc         1 8YZ       0.033033
     61 H19          0.4300    -4.8270     0.1350 hc         1 8YZ       0.033033
     62 H20          3.5690    -3.8810    -1.0640 ha         1 8YZ       0.129000
     63 H21         -1.1220    -0.6550     1.1990 h1         1 8YZ       0.041200
     64 H22         -1.3710    -0.3220    -0.5310 h1         1 8YZ       0.041200
     65 H23         -2.2560    -3.5660     1.0930 ha         1 8YZ       0.135000
     66 H24         -4.5520    -4.4460     1.3130 ha         1 8YZ       0.112000
     67 H25         -6.4940    -3.0340     0.7160 ha         1 8YZ       0.112000
     68 H26         -3.4900     0.7610    -1.4020 hc         1 8YZ       0.045367
     69 H27         -4.6360     1.3120    -0.1690 hc         1 8YZ       0.045367
     70 H28         -2.9490     1.1460     0.2430 hc         1 8YZ       0.045367
     71 H29         -5.9000    -0.0850    -2.2250 ha         1 8YZ       0.124000
     72 H30         -7.9370     1.2070    -2.8200 ha         1 8YZ       0.126000
     73 H31        -11.8590     2.3430    -0.5970 h1         1 8YZ       0.064200
     74 H32        -11.6370     0.5750    -0.5580 h1         1 8YZ       0.064200
     75 H33        -10.2670     2.5960     1.3170 h1         1 8YZ       0.065200
     76 H34        -11.5570     1.4580     1.7810 h1         1 8YZ       0.065200
     77 H35         -7.4760    -0.7460     1.7490 ha         1 8YZ       0.131000
@<TRIPOS>BOND
     1     1     2 3   
     2     2     3 1   
     3     3     4 ar  
     4     3     7 ar  
     5     4     5 ar  
     6     4    45 1   
     7     5     6 ar  
     8     5    46 1   
     9     6     8 ar  
    10     6    47 1   
    11     7     8 ar  
    12     7    48 1   
    13     8     9 1   
    14     9    10 1   
    15     9    49 1   
    16     9    50 1   
    17    10    11 1   
    18    11    12 ar  
    19    11    21 ar  
    20    12    13 1   
    21    12    25 ar  
    22    13    14 1   
    23    13    51 1   
    24    13    52 1   
    25    14    15 1   
    26    14    53 1   
    27    15    16 1   
    28    15    19 1   
    29    15    54 1   
    30    16    17 1   
    31    16    18 1   
    32    19    20 1   
    33    19    55 1   
    34    19    56 1   
    35    20    57 1   
    36    21    22 ar  
    37    21    58 1   
    38    22    23 ar  
    39    22    26 1   
    40    23    24 1   
    41    23    25 ar  
    42    24    59 1   
    43    24    60 1   
    44    24    61 1   
    45    25    62 1   
    46    26    27 1   
    47    27    28 1   
    48    27    63 1   
    49    27    64 1   
    50    28    29 ar  
    51    28    33 ar  
    52    29    30 ar  
    53    29    65 1   
    54    30    31 ar  
    55    30    66 1   
    56    31    32 ar  
    57    31    67 1   
    58    32    33 ar  
    59    32    35 1   
    60    33    34 1   
    61    34    68 1   
    62    34    69 1   
    63    34    70 1   
    64    35    36 ar  
    65    35    44 ar  
    66    36    37 ar  
    67    36    71 1   
    68    37    38 ar  
    69    37    72 1   
    70    38    39 1   
    71    38    43 ar  
    72    39    40 1   
    73    40    41 1   
    74    40    73 1   
    75    40    74 1   
    76    41    42 1   
    77    41    75 1   
    78    41    76 1   
    79    42    43 1   
    80    43    44 ar  
    81    44    77 1   
@<TRIPOS>SUBSTRUCTURE
     1 8YZ         1 TEMP              0 ****  ****    0 ROOT
