@<TRIPOS>MOLECULE
8Z0
  102   107     1     0     0
SMALL
abcg2


@<TRIPOS>ATOM
      1 C1          -5.4290    -2.9410     0.1620 ca         1 8Z0       0.149100
      2 C2          -6.0920    -4.0580    -0.3230 ca         1 8Z0      -0.185000
      3 C3          -6.6630    -4.0640    -1.6090 ca         1 8Z0      -0.092000
      4 C4          -6.5950    -2.9770    -2.4510 ca         1 8Z0      -0.092000
      5 C5          -5.9250    -1.8400    -1.9790 ca         1 8Z0      -0.098800
      6 C6          -5.3710    -1.8470    -0.7030 ca         1 8Z0       0.045100
      7 C7          -4.8780    -3.9200     2.2380 c3         1 8Z0       0.145900
      8 C8          -5.6090    -0.5500    -2.5140 cc         1 8Z0      -0.161200
      9 C9          -4.9090     0.0910    -1.5520 cd         1 8Z0      -0.055100
     10 C10         -4.2830     1.4240    -1.5760 c          1 8Z0       0.647300
     11 O1          -4.8430    -2.8110     1.3590 os         1 8Z0      -0.321100
     12 O3          -4.2980     2.0900    -2.5990 o          1 8Z0      -0.597100
     13 O7          -4.7630    -0.6750    -0.4400 os         1 8Z0      -0.149200
     14 C11         -2.9610     3.0380    -0.2570 c3         1 8Z0       0.040700
     15 N2          -3.7230     1.8170    -0.4140 ns         1 8Z0      -0.491900
     16 C12         -3.6070     4.0240     0.7140 c5         1 8Z0      -0.094700
     17 C13         -5.0090     4.4630     0.2450 c5         1 8Z0      -0.113400
     18 C15         -3.8680     3.4760     2.1350 c5         1 8Z0       0.160600
     19 C16         -1.5410     2.6470     0.1610 c          1 8Z0       0.583100
     20 C14         -5.9370     3.7990     1.2520 c5         1 8Z0       0.150600
     21 O           -1.1780     2.6820     1.3270 o          1 8Z0      -0.615100
     22 O8          -5.2060     3.7990     2.4600 os         1 8Z0      -0.453000
     23 C26          2.9490     2.2100    -0.1950 c          1 8Z0       0.578100
     24 N3          -0.7630     2.2170    -0.8420 ns         1 8Z0      -0.482900
     25 O4           3.7620     1.8130    -1.0210 o          1 8Z0      -0.619100
     26 C25          1.6210     2.7800    -0.6730 c3         1 8Z0       0.084300
     27 C19         -0.2080    -0.5460    -1.6060 ca         1 8Z0      -0.088300
     28 C18          0.8160     0.5530    -1.6680 c3         1 8Z0      -0.045100
     29 C22         -2.1150    -2.5920    -1.4750 ca         1 8Z0      -0.106000
     30 C17          0.5530     1.6560    -0.6370 c3         1 8Z0       0.088700
     31 O2           1.7580     3.3280    -1.9480 oh         1 8Z0      -0.646000
     32 C20         -1.2440    -0.6150    -2.5340 ca         1 8Z0      -0.106500
     33 C24         -0.1410    -1.5190    -0.6100 ca         1 8Z0      -0.106500
     34 C21         -2.1880    -1.6320    -2.4740 ca         1 8Z0      -0.110500
     35 C23         -1.0880    -2.5310    -0.5410 ca         1 8Z0      -0.110500
     36 C32          3.9920    -0.1600     1.2880 c          1 8Z0       0.595100
     37 N4           3.1600     2.1030     1.1270 n          1 8Z0      -0.387800
     38 O5           2.8570    -0.6050     1.3320 o          1 8Z0      -0.595100
     39 C27          4.2850     1.3150     1.5860 c5         1 8Z0       0.026700
     40 C28          4.4710     1.6310     3.0830 c5         1 8Z0       0.092000
     41 C31          2.2660     2.6230     2.1550 c5         1 8Z0       0.228000
     42 C29          5.2180     2.9530     3.2340 c3         1 8Z0      -0.082100
     43 C30          5.1750     0.5340     3.8670 c3         1 8Z0      -0.082100
     44 S2           2.7510     1.7940     3.6820 ss         1 8Z0      -0.381000
     45 C33          5.0130    -2.2990     0.6330 c3         1 8Z0       0.147300
     46 C35          5.8360    -2.3490    -1.7390 ca         1 8Z0      -0.051800
     47 C36          6.8300    -2.6320    -2.6710 ca         1 8Z0      -0.119500
     48 C37          8.0430    -3.1730    -2.2720 ca         1 8Z0      -0.094000
     49 C38          8.2750    -3.4320    -0.9310 ca         1 8Z0      -0.119500
     50 C39          7.3010    -3.1590     0.0260 ca         1 8Z0      -0.051800
     51 C40          7.5910    -3.4410     1.4750 c3         1 8Z0      -0.054300
     52 C34          6.0730    -2.6250    -0.3850 ca         1 8Z0      -0.120300
     53 H1          -6.1780    -4.9490     0.2840 ha         1 8Z0       0.121000
     54 H2          -7.1690    -4.9630    -1.9350 ha         1 8Z0       0.116000
     55 H3          -7.0370    -3.0000    -3.4380 ha         1 8Z0       0.126000
     56 H4          -4.3660    -3.6100     3.1450 h1         1 8Z0       0.044367
     57 H5          -5.9020    -4.2080     2.4880 h1         1 8Z0       0.044367
     58 H6          -4.3590    -4.7850     1.8170 h1         1 8Z0       0.044367
     59 H7          -5.8610    -0.1650    -3.4890 ha         1 8Z0       0.229000
     60 H8          -2.9150     3.5170    -1.2360 h1         1 8Z0       0.089700
     61 H9          -3.7340     1.1740     0.3620 hn         1 8Z0       0.343500
     62 H10         -2.9470     4.8920     0.7640 hc         1 8Z0       0.070700
     63 H12         -5.1010     5.5480     0.3040 hc         1 8Z0       0.059700
     64 H13         -5.2290     4.1740    -0.7830 hc         1 8Z0       0.059700
     65 H16         -3.7160     2.3900     2.1890 h1         1 8Z0       0.054700
     66 H17         -3.2160     3.9280     2.8820 h1         1 8Z0       0.054700
     67 H20         -6.8720     4.3390     1.4090 h1         1 8Z0       0.046700
     68 H21         -6.1860     2.7760     0.9370 h1         1 8Z0       0.046700
     69 H15         -1.1090     2.2810    -1.7870 hn         1 8Z0       0.330500
     70 H39          1.2870     3.5830    -0.0090 h1         1 8Z0       0.092700
     71 H32          1.8080     0.1390    -1.4800 hc         1 8Z0       0.063700
     72 H33          0.8360     0.9850    -2.6720 hc         1 8Z0       0.063700
     73 H36         -2.8470    -3.3880    -1.4280 ha         1 8Z0       0.112000
     74 H14          0.5660     1.1960     0.3550 h1         1 8Z0       0.095700
     75 H22          2.4450     2.8290    -2.4110 ho         1 8Z0       0.468000
     76 H31         -1.3100     0.1240    -3.3240 ha         1 8Z0       0.120500
     77 H38          0.6690    -1.4870     0.1090 ha         1 8Z0       0.120500
     78 H34         -2.9790    -1.6750    -3.2110 ha         1 8Z0       0.113000
     79 H37         -1.0200    -3.2790     0.2390 ha         1 8Z0       0.113000
     80 H11          5.1930     1.6210     1.0600 h1         1 8Z0       0.089700
     81 H18          2.3770     3.7050     2.2460 h2         1 8Z0       0.089200
     82 H19          1.2180     2.3970     1.9630 h2         1 8Z0       0.089200
     83 H23          4.7370     3.7670     2.6900 hc         1 8Z0       0.049700
     84 H24          5.2750     3.2390     4.2840 hc         1 8Z0       0.049700
     85 H25          6.2360     2.8540     2.8540 hc         1 8Z0       0.049700
     86 H28          6.1770     0.3630     3.4690 hc         1 8Z0       0.049700
     87 H29          5.2880     0.8380     4.9080 hc         1 8Z0       0.049700
     88 H30          4.6310    -0.4090     3.8520 hc         1 8Z0       0.049700
     89 H26          5.1240    -2.9130     1.5280 h1         1 8Z0       0.060200
     90 H27          4.0190    -2.5110     0.2400 h1         1 8Z0       0.060200
     91 H35          5.9680    -0.4340     0.9300 hn         1 8Z0       0.319500
     92 H40          3.6940    -2.4370    -1.9890 hc         1 8Z0       0.046200
     93 H41          4.3080    -0.8140    -1.7190 hc         1 8Z0       0.046200
     94 H42          4.5420    -1.5950    -3.2770 hc         1 8Z0       0.046200
     95 H44          8.8070    -3.3900    -3.0070 ha         1 8Z0       0.114000
     96 H45          9.2250    -3.8490    -0.6190 ha         1 8Z0       0.113500
     97 H46          7.4550    -2.5580     2.1030 hc         1 8Z0       0.046200
     98 H47          6.9400    -4.2200     1.8770 hc         1 8Z0       0.046200
     99 H48          8.6180    -3.7760     1.6050 hc         1 8Z0       0.046200
    100 N5           5.0690    -0.8890     0.9780 ns         1 8Z0      -0.495900
    101 H43          6.6500    -2.4260    -3.7190 ha         1 8Z0       0.113500
    102 C41          4.5300    -1.7670    -2.2020 c3         1 8Z0      -0.054300
@<TRIPOS>BOND
     1     1     2 ar  
     2     1     6 ar  
     3     1    11 1   
     4     2     3 ar  
     5     2    53 1   
     6     3     4 ar  
     7     3    54 1   
     8     4     5 ar  
     9     4    55 1   
    10     5     6 ar  
    11     5     8 1   
    12     6    13 1   
    13     7    11 1   
    14     7    56 1   
    15     7    57 1   
    16     7    58 1   
    17     8     9 2   
    18     8    59 1   
    19     9    10 1   
    20     9    13 1   
    21    10    12 2   
    22    10    15 1   
    23    14    15 1   
    24    14    16 1   
    25    14    19 1   
    26    14    60 1   
    27    15    61 1   
    28    16    17 1   
    29    16    18 1   
    30    16    62 1   
    31    17    20 1   
    32    17    63 1   
    33    17    64 1   
    34    18    22 1   
    35    18    65 1   
    36    18    66 1   
    37    19    21 2   
    38    19    24 1   
    39    20    22 1   
    40    20    67 1   
    41    20    68 1   
    42    23    25 2   
    43    23    26 1   
    44    23    37 1   
    45    24    30 1   
    46    24    69 1   
    47    26    30 1   
    48    26    31 1   
    49    26    70 1   
    50    27    28 1   
    51    27    32 ar  
    52    27    33 ar  
    53    28    30 1   
    54    28    71 1   
    55    28    72 1   
    56    29    34 ar  
    57    29    35 ar  
    58    29    73 1   
    59    30    74 1   
    60    31    75 1   
    61    32    34 ar  
    62    32    76 1   
    63    33    35 ar  
    64    33    77 1   
    65    34    78 1   
    66    35    79 1   
    67    36    38 2   
    68    36    39 1   
    69    36   100 1   
    70    37    39 1   
    71    37    41 1   
    72    39    40 1   
    73    39    80 1   
    74    40    42 1   
    75    40    43 1   
    76    40    44 1   
    77    41    44 1   
    78    41    81 1   
    79    41    82 1   
    80    42    83 1   
    81    42    84 1   
    82    42    85 1   
    83    43    86 1   
    84    43    87 1   
    85    43    88 1   
    86    45    52 1   
    87    45    89 1   
    88    45    90 1   
    89    45   100 1   
    90    46    47 ar  
    91    46    52 ar  
    92    46   102 1   
    93    47    48 ar  
    94    47   101 1   
    95    48    49 ar  
    96    48    95 1   
    97    49    50 ar  
    98    49    96 1   
    99    50    51 1   
   100    50    52 ar  
   101    51    97 1   
   102    51    98 1   
   103    51    99 1   
   104    91   100 1   
   105    92   102 1   
   106    93   102 1   
   107    94   102 1   
@<TRIPOS>SUBSTRUCTURE
     1 8Z0         1 TEMP              0 ****  ****    0 ROOT
