@<TRIPOS>MOLECULE
8Z0
  102   107     1     0     0
SMALL
No Charge or Current Charge


@<TRIPOS>ATOM
      1 C1          -6.0400    -2.1080    -2.4140 ca         1 8Z0       0.149100
      2 C2          -6.9170    -2.6830    -3.3700 ca         1 8Z0      -0.185000
      3 C3          -7.7340    -1.8550    -4.1820 ca         1 8Z0      -0.092000
      4 C4          -7.6900    -0.4480    -4.0580 ca         1 8Z0      -0.092000
      5 C5          -6.8180     0.0960    -3.1080 ca         1 8Z0      -0.098800
      6 C6          -6.0280    -0.7090    -2.3170 ca         1 8Z0       0.045100
      7 C7          -5.1740    -4.2910    -1.6590 c3         1 8Z0       0.145900
      8 C8          -6.5430     1.4740    -2.7550 cc         1 8Z0      -0.161200
      9 C9          -5.5840     1.3910    -1.7520 cd         1 8Z0      -0.055100
     10 C10         -4.9330     2.5240    -1.0400 c          1 8Z0       0.647300
     11 O1          -5.2130    -2.8550    -1.5970 os         1 8Z0      -0.321100
     12 O3          -5.1610     3.7050    -1.2650 o          1 8Z0      -0.597100
     13 O7          -5.2790     0.0740    -1.4890 os         1 8Z0      -0.149200
     14 C11         -3.2640     2.9890     0.8250 c3         1 8Z0       0.040700
     15 N2          -4.0270     2.1010    -0.0910 ns         1 8Z0      -0.491900
     16 C12         -3.7900     2.9100     2.2910 c5         1 8Z0      -0.094700
     17 C13         -5.3330     3.1210     2.4620 c5         1 8Z0      -0.113400
     18 C15         -3.5480     1.5210     2.9760 c5         1 8Z0       0.160600
     19 C16         -1.7290     2.7100     0.7420 c          1 8Z0       0.583100
     20 C14         -5.8330     1.6830     2.7140 c5         1 8Z0       0.150600
     21 O           -0.9220     3.2070     1.5170 o          1 8Z0      -0.615100
     22 O8          -4.8100     1.1640     3.5750 os         1 8Z0      -0.453000
     23 C26          2.3800     1.4700    -1.2240 c          1 8Z0       0.578100
     24 N3          -1.3310     1.8100    -0.2240 ns         1 8Z0      -0.482900
     25 O4           2.8610     0.6920    -2.0420 o          1 8Z0      -0.619100
     26 C25          0.8910     1.9170    -1.3580 c3         1 8Z0       0.084300
     27 C19         -1.0650    -0.9680     0.5340 ca         1 8Z0      -0.088300
     28 C18         -0.1460    -0.3390    -0.5100 c3         1 8Z0      -0.045100
     29 C22         -2.7790    -2.0610     2.4890 ca         1 8Z0      -0.106000
     30 C17         -0.0040     1.1930    -0.3080 c3         1 8Z0       0.088700
     31 O2           0.3850     1.6940    -2.7020 oh         1 8Z0      -0.646000
     32 C20         -2.3630    -1.3920     0.1840 ca         1 8Z0      -0.106500
     33 C24         -0.6320    -1.0970     1.8680 ca         1 8Z0      -0.106500
     34 C21         -3.2180    -1.9350     1.1600 ca         1 8Z0      -0.110500
     35 C23         -1.4860    -1.6420     2.8420 ca         1 8Z0      -0.110500
     36 C32          4.3820    -0.1320     0.6450 c          1 8Z0       0.595100
     37 N4           3.1650     1.9440    -0.1490 n          1 8Z0      -0.387800
     38 O5           3.4300    -0.6350     1.2280 o          1 8Z0      -0.595100
     39 C27          4.5120     1.3400     0.1350 c5         1 8Z0       0.026700
     40 C28          5.1940     2.2700     1.2180 c5         1 8Z0       0.092000
     41 C31          2.7520     3.0660     0.7300 c5         1 8Z0       0.228000
     42 C29          5.9130     3.4820     0.5680 c3         1 8Z0      -0.082100
     43 C30          6.2060     1.5800     2.1730 c3         1 8Z0      -0.082100
     44 S2           3.7910     2.8890     2.2420 ss         1 8Z0      -0.381000
     45 C33          5.6880    -2.2690     0.5930 c3         1 8Z0       0.147300
     46 C35          7.2680    -3.2050    -1.1900 ca         1 8Z0      -0.051800
     47 C36          8.5430    -3.6400    -1.5970 ca         1 8Z0      -0.119500
     48 C37          9.6230    -3.6190    -0.7050 ca         1 8Z0      -0.094000
     49 C38          9.4370    -3.1580     0.6050 ca         1 8Z0      -0.119500
     50 C39          8.1720    -2.7170     1.0380 ca         1 8Z0      -0.051800
     51 C40          8.0250    -2.2170     2.4730 c3         1 8Z0      -0.054300
     52 C34          7.0710    -2.7460     0.1400 ca         1 8Z0      -0.120300
     53 H1          -6.9770    -3.7590    -3.4970 ha         1 8Z0       0.121000
     54 H2          -8.4020    -2.3080    -4.9120 ha         1 8Z0       0.116000
     55 H3          -8.3120     0.1900    -4.6810 ha         1 8Z0       0.126000
     56 H4          -4.4530    -4.6820    -0.9320 h1         1 8Z0       0.044367
     57 H5          -6.1580    -4.7180    -1.4270 h1         1 8Z0       0.044367
     58 H6          -4.8690    -4.6300    -2.6570 h1         1 8Z0       0.044367
     59 H7          -6.9710     2.3840    -3.1720 ha         1 8Z0       0.229000
     60 H8          -3.3870     4.0230     0.4810 h1         1 8Z0       0.089700
     61 H9          -3.9740     1.0970     0.0400 hn         1 8Z0       0.343500
     62 H10         -3.2560     3.6910     2.8460 hc         1 8Z0       0.070700
     63 H12         -5.5500     3.7580     3.3280 hc         1 8Z0       0.059700
     64 H13         -5.8110     3.5880     1.5940 hc         1 8Z0       0.059700
     65 H16         -3.2770     0.7470     2.2460 h1         1 8Z0       0.054700
     66 H17         -2.7680     1.5560     3.7480 h1         1 8Z0       0.054700
     67 H20         -6.8090     1.6460     3.2150 h1         1 8Z0       0.046700
     68 H21         -5.8750     1.0850     1.7920 h1         1 8Z0       0.046700
     69 H15         -2.0430     1.4960    -0.8710 hn         1 8Z0       0.330500
     70 H39          0.8660     2.9920    -1.1390 h1         1 8Z0       0.092700
     71 H32          0.8450    -0.8070    -0.4580 hc         1 8Z0       0.063700
     72 H33         -0.5270    -0.5440    -1.5180 hc         1 8Z0       0.063700
     73 H36         -3.4420    -2.4790     3.2430 ha         1 8Z0       0.112000
     74 H14          0.4750     1.3150     0.6730 h1         1 8Z0       0.095700
     75 H22          1.0320     1.0920    -3.1400 ho         1 8Z0       0.468000
     76 H31         -2.7140    -1.2990    -0.8410 ha         1 8Z0       0.120500
     77 H38          0.3670    -0.7710     2.1520 ha         1 8Z0       0.120500
     78 H34         -4.2200    -2.2560     0.8880 ha         1 8Z0       0.113000
     79 H37         -1.1450    -1.7380     3.8710 ha         1 8Z0       0.113000
     80 H11          5.1180     1.3170    -0.7810 h1         1 8Z0       0.089700
     81 H18          2.9810     4.0010     0.2040 h2         1 8Z0       0.089200
     82 H19          1.6920     2.9750     0.9880 h2         1 8Z0       0.089200
     83 H23          5.2580     4.0310    -0.1190 hc         1 8Z0       0.049700
     84 H24          6.2620     4.1930     1.3260 hc         1 8Z0       0.049700
     85 H25          6.7870     3.1580    -0.0100 hc         1 8Z0       0.049700
     86 H28          7.0490     1.1500     1.6200 hc         1 8Z0       0.049700
     87 H29          6.6190     2.2960     2.8930 hc         1 8Z0       0.049700
     88 H30          5.7380     0.7790     2.7580 hc         1 8Z0       0.049700
     89 H26          5.5550    -2.4270     1.6710 h1         1 8Z0       0.060200
     90 H27          4.8990    -2.8440     0.0930 h1         1 8Z0       0.060200
     91 H35          6.2380    -0.3720    -0.2080 hn         1 8Z0       0.319500
     92 H40          5.3720    -3.9840    -1.9230 hc         1 8Z0       0.046200
     93 H41          5.6300    -2.2650    -2.2810 hc         1 8Z0       0.046200
     94 H42          6.4800    -3.4990    -3.2090 hc         1 8Z0       0.046200
     95 H44         10.6050    -3.9570    -1.0290 ha         1 8Z0       0.114000
     96 H45         10.2850    -3.1430     1.2870 ha         1 8Z0       0.113500
     97 H46          7.5610    -1.2250     2.5050 hc         1 8Z0       0.046200
     98 H47          7.4080    -2.9010     3.0670 hc         1 8Z0       0.046200
     99 H48          8.9950    -2.1340     2.9770 hc         1 8Z0       0.046200
    100 N5           5.5030    -0.8540     0.2940 ns         1 8Z0      -0.495900
    101 H43          8.7020    -3.9960    -2.6130 ha         1 8Z0       0.113500
    102 C41          6.1260    -3.2390    -2.2040 c3         1 8Z0      -0.054300
@<TRIPOS>BOND
     1     1     2 ar  
     2     1     6 ar  
     3     1    11 1   
     4     2     3 ar  
     5     2    53 1   
     6     3     4 ar  
     7     3    54 1   
     8     4     5 ar  
     9     4    55 1   
    10     5     6 ar  
    11     5     8 1   
    12     6    13 1   
    13     7    11 1   
    14     7    56 1   
    15     7    57 1   
    16     7    58 1   
    17     8     9 2   
    18     8    59 1   
    19     9    10 1   
    20     9    13 1   
    21    10    12 2   
    22    10    15 1   
    23    14    15 1   
    24    14    16 1   
    25    14    19 1   
    26    14    60 1   
    27    15    61 1   
    28    16    17 1   
    29    16    18 1   
    30    16    62 1   
    31    17    20 1   
    32    17    63 1   
    33    17    64 1   
    34    18    22 1   
    35    18    65 1   
    36    18    66 1   
    37    19    21 2   
    38    19    24 1   
    39    20    22 1   
    40    20    67 1   
    41    20    68 1   
    42    23    25 2   
    43    23    26 1   
    44    23    37 1   
    45    24    30 1   
    46    24    69 1   
    47    26    30 1   
    48    26    31 1   
    49    26    70 1   
    50    27    28 1   
    51    27    32 ar  
    52    27    33 ar  
    53    28    30 1   
    54    28    71 1   
    55    28    72 1   
    56    29    34 ar  
    57    29    35 ar  
    58    29    73 1   
    59    30    74 1   
    60    31    75 1   
    61    32    34 ar  
    62    32    76 1   
    63    33    35 ar  
    64    33    77 1   
    65    34    78 1   
    66    35    79 1   
    67    36    38 2   
    68    36    39 1   
    69    36   100 1   
    70    37    39 1   
    71    37    41 1   
    72    39    40 1   
    73    39    80 1   
    74    40    42 1   
    75    40    43 1   
    76    40    44 1   
    77    41    44 1   
    78    41    81 1   
    79    41    82 1   
    80    42    83 1   
    81    42    84 1   
    82    42    85 1   
    83    43    86 1   
    84    43    87 1   
    85    43    88 1   
    86    45    52 1   
    87    45    89 1   
    88    45    90 1   
    89    45   100 1   
    90    46    47 ar  
    91    46    52 ar  
    92    46   102 1   
    93    47    48 ar  
    94    47   101 1   
    95    48    49 ar  
    96    48    95 1   
    97    49    50 ar  
    98    49    96 1   
    99    50    51 1   
   100    50    52 ar  
   101    51    97 1   
   102    51    98 1   
   103    51    99 1   
   104    91   100 1   
   105    92   102 1   
   106    93   102 1   
   107    94   102 1   
@<TRIPOS>SUBSTRUCTURE
     1 8Z0         1 TEMP              0 ****  ****    0 ROOT
