@<TRIPOS>MOLECULE
8Z3
   69    72     1     0     0
SMALL
abcg2


@<TRIPOS>ATOM
      1 C10        -27.3170    14.3180    17.5940 ca         1 8Z3      -0.043300
      2 C11        -28.7510    14.5460    17.9950 c3         1 8Z3      -0.048800
      3 C12        -26.8370    13.0550    17.2380 ca         1 8Z3      -0.096000
      4 C13        -25.4490    12.8410    17.2140 ca         1 8Z3       0.226000
      5 C15        -25.8320    10.5620    17.8820 c6         1 8Z3       0.242100
      6 F19        -29.2740    13.0670    15.6890 f          1 8Z3      -0.171000
      7 C18        -28.8920    11.9230    16.2730 ca         1 8Z3       0.175000
      8 C20        -29.6940    10.8110    16.0960 ca         1 8Z3      -0.155000
      9 C21        -29.2700     9.5930    16.6010 ca         1 8Z3      -0.097000
     10 C22        -28.0340     9.4930    17.2260 ca         1 8Z3      -0.120000
     11 C17        -27.6990    11.8870    16.9860 ca         1 8Z3      -0.037000
     12 C16        -27.2510    10.6240    17.3950 ca         1 8Z3      -0.109300
     13 N14        -25.0150    11.4900    17.0990 nh         1 8Z3      -0.719300
     14 S23        -24.3660    10.9380    15.6600 s6         1 8Z3       1.192100
     15 O26        -23.6000     9.7460    15.9870 o          1 8Z3      -0.533500
     16 C24        -25.7080    10.4480    14.5960 c3         1 8Z3      -0.379100
     17 O25        -23.7060    12.0650    15.0250 o          1 8Z3      -0.533500
     18 C27        -24.5290    13.8540    17.4620 ca         1 8Z3       0.010700
     19 C28        -23.0700    13.5270    17.6150 c3         1 8Z3      -0.049800
     20 C29        -25.0190    15.1630    17.6190 ca         1 8Z3       0.020700
     21 C30        -24.0440    16.3120    17.7640 c3         1 8Z3       0.045600
     22 O31        -23.0670    16.2750    16.7550 os         1 8Z3      -0.432000
     23 C32        -23.1330    17.2090    15.6840 c3         1 8Z3       0.194000
     24 C33        -24.4450    17.0980    14.9120 c3         1 8Z3      -0.102767
     25 C34        -21.9710    16.8250    14.7740 c3         1 8Z3      -0.102767
     26 C35        -22.9400    18.6400    16.1860 c3         1 8Z3      -0.102767
     27 C36        -23.3860    16.3400    19.1810 c          1 8Z3       0.726000
     28 O37        -24.1150    15.9520    20.1160 o          1 8Z3      -0.706500
     29 O38        -22.2290    16.7790    19.2570 o          1 8Z3      -0.706500
     30 C09        -26.4000    15.3810    17.6920 cp         1 8Z3      -0.055000
     31 C05        -26.9690    16.7420    17.8880 cp         1 8Z3      -0.117000
     32 C06        -27.7000    17.3430    16.8550 ca         1 8Z3       0.144100
     33 O07        -27.8770    16.7530    15.6530 oh         1 8Z3      -0.553100
     34 C08        -28.2800    18.5940    17.0320 ca         1 8Z3      -0.168000
     35 C02        -28.1670    19.2730    18.2390 ca         1 8Z3      -0.054300
     36 C01        -28.8340    20.6040    18.4260 c3         1 8Z3      -0.040800
     37 C03        -27.4450    18.6770    19.2710 ca         1 8Z3      -0.156000
     38 C04        -26.8570    17.4350    19.0910 ca         1 8Z3      -0.038000
     39 H1         -28.7870    15.2080    18.8600 hc         1 8Z3       0.044033
     40 H2         -29.3570    15.0100    17.2180 hc         1 8Z3       0.044033
     41 H3         -29.2370    13.6160    18.2850 hc         1 8Z3       0.044033
     42 H4         -25.4320     9.5520    17.8030 h1         1 8Z3       0.084200
     43 H5         -25.7440    10.8600    18.9300 h1         1 8Z3       0.084200
     44 H6         -30.6230    10.8990    15.5480 ha         1 8Z3       0.126000
     45 H7         -29.8870     8.7140    16.4700 ha         1 8Z3       0.111000
     46 H8         -27.6640     8.5300    17.5530 ha         1 8Z3       0.116000
     47 H9         -26.2580     9.6200    15.0340 h1         1 8Z3       0.096700
     48 H10        -26.3690    11.2960    14.4260 h1         1 8Z3       0.096700
     49 H11        -25.2610    10.1340    13.6530 h1         1 8Z3       0.096700
     50 H12        -22.5090    13.7020    16.7000 hc         1 8Z3       0.061367
     51 H13        -22.6060    14.1280    18.3920 hc         1 8Z3       0.061367
     52 H14        -22.9390    12.4820    17.8870 hc         1 8Z3       0.061367
     53 H15        -24.6210    17.2440    17.7120 h1         1 8Z3       0.042700
     54 H16        -25.2940    17.4430    15.5010 hc         1 8Z3       0.034144
     55 H17        -24.4080    17.7190    14.0150 hc         1 8Z3       0.034144
     56 H18        -24.6360    16.0690    14.5990 hc         1 8Z3       0.034144
     57 H19        -21.0190    16.8880    15.3050 hc         1 8Z3       0.034144
     58 H20        -22.0870    15.8070    14.3990 hc         1 8Z3       0.034144
     59 H21        -21.9210    17.4960    13.9160 hc         1 8Z3       0.034144
     60 H22        -22.0180    18.7290    16.7620 hc         1 8Z3       0.034144
     61 H23        -22.8820    19.3310    15.3440 hc         1 8Z3       0.034144
     62 H24        -23.7680    18.9720    16.8160 hc         1 8Z3       0.034144
     63 H26        -27.3860    15.9220    15.6100 ho         1 8Z3       0.478000
     64 H27        -28.8280    19.0380    16.2080 ha         1 8Z3       0.112000
     65 H28        -29.8810    20.4790    18.7080 hc         1 8Z3       0.033700
     66 H29        -28.3540    21.1850    19.2120 hc         1 8Z3       0.033700
     67 H30        -28.8160    21.1940    17.5090 hc         1 8Z3       0.033700
     68 H31        -27.3390    19.1880    20.2210 ha         1 8Z3       0.110000
     69 H32        -26.2840    16.9850    19.8900 ha         1 8Z3       0.169000
@<TRIPOS>BOND
     1     1     2 1   
     2     1     3 ar  
     3     1    30 ar  
     4     2    39 1   
     5     2    40 1   
     6     2    41 1   
     7     3     4 ar  
     8     3    11 1   
     9     4    13 1   
    10     4    18 ar  
    11     5    12 1   
    12     5    13 1   
    13     5    42 1   
    14     5    43 1   
    15     6     7 1   
    16     7     8 ar  
    17     7    11 ar  
    18     8     9 ar  
    19     8    44 1   
    20     9    10 ar  
    21     9    45 1   
    22    10    12 ar  
    23    10    46 1   
    24    11    12 ar  
    25    13    14 1   
    26    14    15 2   
    27    14    16 1   
    28    14    17 2   
    29    16    47 1   
    30    16    48 1   
    31    16    49 1   
    32    18    19 1   
    33    18    20 ar  
    34    19    50 1   
    35    19    51 1   
    36    19    52 1   
    37    20    21 1   
    38    20    30 ar  
    39    21    22 1   
    40    21    27 1   
    41    21    53 1   
    42    22    23 1   
    43    23    24 1   
    44    23    25 1   
    45    23    26 1   
    46    24    54 1   
    47    24    55 1   
    48    24    56 1   
    49    25    57 1   
    50    25    58 1   
    51    25    59 1   
    52    26    60 1   
    53    26    61 1   
    54    26    62 1   
    55    27    28 1   
    56    27    29 1   
    57    30    31 1   
    58    31    32 ar  
    59    31    38 ar  
    60    32    33 1   
    61    32    34 ar  
    62    33    63 1   
    63    34    35 ar  
    64    34    64 1   
    65    35    36 1   
    66    35    37 ar  
    67    36    65 1   
    68    36    66 1   
    69    36    67 1   
    70    37    38 ar  
    71    37    68 1   
    72    38    69 1   
@<TRIPOS>SUBSTRUCTURE
     1 8Z3         1 TEMP              0 ****  ****    0 ROOT
