@<TRIPOS>MOLECULE
8Z3
   69    72     1     0     0
SMALL
No Charge or Current Charge


@<TRIPOS>ATOM
      1 C10        -27.3690    14.1650    17.5880 ca         1 8Z3      -0.043300
      2 C11        -28.8180    14.4170    18.0430 c3         1 8Z3      -0.048800
      3 C12        -26.8710    12.8530    17.3270 ca         1 8Z3      -0.096000
      4 C13        -25.4590    12.6560    17.3410 ca         1 8Z3       0.226000
      5 C15        -25.7420    10.3010    17.8960 c6         1 8Z3       0.242100
      6 F19        -29.4580    12.8320    15.8770 f          1 8Z3      -0.171000
      7 C18        -29.0020    11.7310    16.5130 ca         1 8Z3       0.175000
      8 C20        -29.7760    10.5650    16.3920 ca         1 8Z3      -0.155000
      9 C21        -29.2790     9.3320    16.8310 ca         1 8Z3      -0.097000
     10 C22        -27.9760     9.2570    17.3360 ca         1 8Z3      -0.120000
     11 C17        -27.7130    11.7000    17.1230 ca         1 8Z3      -0.037000
     12 C16        -27.1920    10.4210    17.4560 ca         1 8Z3      -0.109300
     13 N14        -24.9670    11.3370    17.1940 nh         1 8Z3      -0.719300
     14 S23        -24.3930    10.8250    15.6300 s6         1 8Z3       1.192100
     15 O26        -23.9550     9.4310    15.7530 o          1 8Z3      -0.533500
     16 C24        -25.8160    10.8770    14.5500 c3         1 8Z3      -0.379100
     17 O25        -23.4470    11.8400    15.1590 o          1 8Z3      -0.533500
     18 C27        -24.5620    13.7450    17.5340 ca         1 8Z3       0.010700
     19 C28        -23.0500    13.4800    17.6850 c3         1 8Z3      -0.049800
     20 C29        -25.0700    15.0730    17.6050 ca         1 8Z3       0.020700
     21 C30        -24.1140    16.2940    17.6700 c3         1 8Z3       0.045600
     22 O31        -23.2250    16.2620    16.5050 os         1 8Z3      -0.432000
     23 C32        -23.0960    17.4400    15.6690 c3         1 8Z3       0.194000
     24 C33        -24.4650    17.7490    15.0100 c3         1 8Z3      -0.102767
     25 C34        -22.0620    17.0470    14.5900 c3         1 8Z3      -0.102767
     26 C35        -22.5720    18.6330    16.5110 c3         1 8Z3      -0.102767
     27 C36        -23.3620    16.4030    19.0470 c          1 8Z3       0.726000
     28 O37        -24.0270    16.3340    20.0720 o          1 8Z3      -0.706500
     29 O38        -22.1430    16.5320    19.0670 o          1 8Z3      -0.706500
     30 C09        -26.4820    15.2750    17.6350 cp         1 8Z3      -0.055000
     31 C05        -27.0630    16.6530    17.7610 cp         1 8Z3      -0.117000
     32 C06        -27.6920    17.2880    16.6610 ca         1 8Z3       0.144100
     33 O07        -27.7880    16.6550    15.4580 oh         1 8Z3      -0.553100
     34 C08        -28.2270    18.5790    16.7870 ca         1 8Z3      -0.168000
     35 C02        -28.1560    19.2650    18.0130 ca         1 8Z3      -0.054300
     36 C01        -28.7390    20.6630    18.1460 c3         1 8Z3      -0.040800
     37 C03        -27.5530    18.6390    19.1170 ca         1 8Z3      -0.156000
     38 C04        -27.0160    17.3460    18.9940 ca         1 8Z3      -0.038000
     39 H1         -28.8450    15.0840    18.9120 hc         1 8Z3       0.044033
     40 H2         -29.4180    14.8930    17.2590 hc         1 8Z3       0.044033
     41 H3         -29.3250    13.5060    18.3770 hc         1 8Z3       0.044033
     42 H4         -25.3680     9.2840    17.7100 h1         1 8Z3       0.084200
     43 H5         -25.6830    10.4610    18.9830 h1         1 8Z3       0.084200
     44 H6         -30.7540    10.6170    15.9210 ha         1 8Z3       0.126000
     45 H7         -29.8790     8.4300    16.7280 ha         1 8Z3       0.111000
     46 H8         -27.5660     8.2890    17.6170 ha         1 8Z3       0.116000
     47 H9         -26.5350    10.1310    14.9000 h1         1 8Z3       0.096700
     48 H10        -26.2320    11.8880    14.5950 h1         1 8Z3       0.096700
     49 H11        -25.4670    10.6380    13.5410 h1         1 8Z3       0.096700
     50 H12        -22.4890    13.8390    16.8160 hc         1 8Z3       0.061367
     51 H13        -22.6430    13.9620    18.5770 hc         1 8Z3       0.061367
     52 H14        -22.8010    12.4220    17.8090 hc         1 8Z3       0.061367
     53 H15        -24.7100    17.2090    17.6350 h1         1 8Z3       0.042700
     54 H16        -25.1690    18.1850    15.7270 hc         1 8Z3       0.034144
     55 H17        -24.3430    18.4720    14.1960 hc         1 8Z3       0.034144
     56 H18        -24.9100    16.8390    14.5910 hc         1 8Z3       0.034144
     57 H19        -21.1010    16.7820    15.0490 hc         1 8Z3       0.034144
     58 H20        -22.4130    16.1860    14.0080 hc         1 8Z3       0.034144
     59 H21        -21.8880    17.8780    13.8960 hc         1 8Z3       0.034144
     60 H22        -21.6340    18.3740    17.0150 hc         1 8Z3       0.034144
     61 H23        -22.3770    19.4970    15.8650 hc         1 8Z3       0.034144
     62 H24        -23.2990    18.9480    17.2690 hc         1 8Z3       0.034144
     63 H26        -27.3980    15.7620    15.5660 ho         1 8Z3       0.478000
     64 H27        -28.7010    19.0480    15.9290 ha         1 8Z3       0.112000
     65 H28        -29.7920    20.6190    18.4480 hc         1 8Z3       0.033700
     66 H29        -28.1990    21.2520    18.8960 hc         1 8Z3       0.033700
     67 H30        -28.6850    21.2100    17.1970 hc         1 8Z3       0.033700
     68 H31        -27.5020    19.1510    20.0750 ha         1 8Z3       0.110000
     69 H32        -26.5630    16.8710    19.8620 ha         1 8Z3       0.169000
@<TRIPOS>BOND
     1     1     2 1   
     2     1     3 ar  
     3     1    30 ar  
     4     2    39 1   
     5     2    40 1   
     6     2    41 1   
     7     3     4 ar  
     8     3    11 1   
     9     4    13 1   
    10     4    18 ar  
    11     5    12 1   
    12     5    13 1   
    13     5    42 1   
    14     5    43 1   
    15     6     7 1   
    16     7     8 ar  
    17     7    11 ar  
    18     8     9 ar  
    19     8    44 1   
    20     9    10 ar  
    21     9    45 1   
    22    10    12 ar  
    23    10    46 1   
    24    11    12 ar  
    25    13    14 1   
    26    14    15 2   
    27    14    16 1   
    28    14    17 2   
    29    16    47 1   
    30    16    48 1   
    31    16    49 1   
    32    18    19 1   
    33    18    20 ar  
    34    19    50 1   
    35    19    51 1   
    36    19    52 1   
    37    20    21 1   
    38    20    30 ar  
    39    21    22 1   
    40    21    27 1   
    41    21    53 1   
    42    22    23 1   
    43    23    24 1   
    44    23    25 1   
    45    23    26 1   
    46    24    54 1   
    47    24    55 1   
    48    24    56 1   
    49    25    57 1   
    50    25    58 1   
    51    25    59 1   
    52    26    60 1   
    53    26    61 1   
    54    26    62 1   
    55    27    28 1   
    56    27    29 1   
    57    30    31 1   
    58    31    32 ar  
    59    31    38 ar  
    60    32    33 1   
    61    32    34 ar  
    62    33    63 1   
    63    34    35 ar  
    64    34    64 1   
    65    35    36 1   
    66    35    37 ar  
    67    36    65 1   
    68    36    66 1   
    69    36    67 1   
    70    37    38 ar  
    71    37    68 1   
    72    38    69 1   
@<TRIPOS>SUBSTRUCTURE
     1 8Z3         1 TEMP              0 ****  ****    0 ROOT
