@<TRIPOS>MOLECULE
8Z4
   69    73     1     0     0
SMALL
No Charge or Current Charge


@<TRIPOS>ATOM
      1 O3          -6.6930     2.2720    -0.7220 o          1 8Z4      -0.533000
      2 C28         -5.7760     1.4710    -0.5690 c          1 8Z4       0.558000
      3 N           -4.5440     1.8370     0.0590 n          1 8Z4      -0.178800
      4 C1          -4.4340     3.1680     0.7120 c3         1 8Z4       0.132700
      5 C2          -3.5930     3.1180     2.0100 c3         1 8Z4      -0.101100
      6 C           -3.8710     4.2240    -0.2640 c3         1 8Z4      -0.101100
      7 C27         -5.8520     0.0390    -1.1540 c6         1 8Z4      -0.141700
      8 C26         -7.2860    -0.5550    -1.2840 c6         1 8Z4      -0.029200
      9 C25         -7.8180    -1.1270     0.0190 c2         1 8Z4      -0.209200
     10 C24         -7.0350    -1.4300     1.0640 c2         1 8Z4      -0.225200
     11 C23         -5.5280    -1.2250     1.0730 c6         1 8Z4      -0.037200
     12 C22         -4.9280    -0.9200    -0.3360 c6         1 8Z4      -0.128000
     13 C3          -3.5350    -0.2850    -0.1650 ce         1 8Z4       0.399900
     14 N1          -3.4300     1.0090    -0.0720 n2         1 8Z4      -0.447300
     15 C4          -2.2990    -1.1450    -0.0700 ca         1 8Z4      -0.157900
     16 C21         -1.0160    -0.5490    -0.1250 ca         1 8Z4      -0.031000
     17 C9           0.1750    -1.3070    -0.0120 cp         1 8Z4      -0.084000
     18 C7           0.0590    -2.7120     0.1600 ca         1 8Z4       0.167100
     19 O            1.2290    -3.4470     0.2280 os         1 8Z4      -0.333100
     20 C8           1.2340    -4.8760     0.3890 c3         1 8Z4       0.145900
     21 C6          -1.2100    -3.3180     0.2300 ca         1 8Z4      -0.210000
     22 C5          -2.3750    -2.5430     0.1220 ca         1 8Z4      -0.051000
     23 C10          1.4990    -0.6120    -0.0810 cp         1 8Z4      -0.004000
     24 C20          1.7630     0.3390    -1.0940 ca         1 8Z4      -0.101500
     25 C19          2.9970     1.0090    -1.1590 ca         1 8Z4      -0.077500
     26 C13          4.0130     0.7410    -0.2170 ca         1 8Z4      -0.142600
     27 C12          3.7450    -0.1800     0.8200 ca         1 8Z4      -0.077500
     28 C11          2.5090    -0.8460     0.8820 ca         1 8Z4      -0.101500
     29 C14          5.3260     1.4900    -0.3100 c          1 8Z4       0.617700
     30 O2           5.3510     2.6590    -0.6770 o          1 8Z4      -0.600100
     31 N2           6.5150     0.8500     0.1050 n          1 8Z4      -0.410800
     32 C18          7.8040     1.5760     0.1730 c5         1 8Z4       0.058000
     33 C17          8.7720     0.4570     0.6480 c5         1 8Z4       0.154300
     34 O1          10.1400     0.7420     0.3540 oh         1 8Z4      -0.647000
     35 C16          8.2450    -0.7340    -0.1860 c5         1 8Z4      -0.097400
     36 C15          6.7120    -0.6180     0.0230 c5         1 8Z4       0.106000
     37 H27         -5.4100     0.1270    -2.1560 hc         1 8Z4       0.077700
     38 H1          -5.4410     3.4920     1.0080 h1         1 8Z4       0.078700
     39 H21C        -2.5480     2.8640     1.7970 hc         1 8Z4       0.043367
     40 H22C        -3.6110     4.0890     2.5180 hc         1 8Z4       0.043367
     41 H23C        -3.9970     2.3670     2.6990 hc         1 8Z4       0.043367
     42 HC1         -4.5010     4.2960    -1.1580 hc         1 8Z4       0.043367
     43 HC2         -3.8390     5.2120     0.2110 hc         1 8Z4       0.043367
     44 HC3         -2.8540     3.9590    -0.5800 hc         1 8Z4       0.043367
     45 H261        -7.9800     0.2040    -1.6710 hc         1 8Z4       0.063200
     46 H262        -7.2780    -1.3580    -2.0340 hc         1 8Z4       0.063200
     47 H22         -4.8460    -1.8590    -0.8990 hc         1 8Z4       0.071700
     48 H25         -8.8970    -1.2930     0.0670 ha         1 8Z4       0.177000
     49 H24         -7.4680    -1.8430     1.9780 ha         1 8Z4       0.176000
     50 H231        -5.3020    -0.4010     1.7660 hc         1 8Z4       0.056700
     51 H232        -5.0430    -2.1130     1.5000 hc         1 8Z4       0.056700
     52 H21         -0.9260     0.5280    -0.2520 ha         1 8Z4       0.140000
     53 H5          -3.3320    -3.0510     0.1920 ha         1 8Z4       0.114000
     54 H6          -1.3160    -4.3900     0.3660 ha         1 8Z4       0.120000
     55 H81C         2.2640    -5.2500     0.4200 h1         1 8Z4       0.043033
     56 H82C         0.7390    -5.1650     1.3260 h1         1 8Z4       0.043033
     57 H83C         0.7190    -5.3640    -0.4480 h1         1 8Z4       0.043033
     58 H20          1.0050     0.5530    -1.8440 ha         1 8Z4       0.120000
     59 H11          2.3240    -1.5410     1.6970 ha         1 8Z4       0.120000
     60 H19          3.1690     1.7310    -1.9550 ha         1 8Z4       0.122500
     61 H12          4.4750    -0.3590     1.6040 ha         1 8Z4       0.122500
     62 H181         8.0860     1.9680    -0.8140 h1         1 8Z4       0.062700
     63 H182         7.7630     2.4100     0.8850 h1         1 8Z4       0.062700
     64 H151         6.4180    -1.1060     0.9610 h1         1 8Z4       0.052200
     65 H152         6.1480    -1.0740    -0.8020 h1         1 8Z4       0.052200
     66 H17          8.6400     0.2610     1.7220 h1         1 8Z4       0.036700
     67 HA          10.4160     1.4710     0.9540 ho         1 8Z4       0.449000
     68 H161         8.5050    -0.6260    -1.2460 hc         1 8Z4       0.067200
     69 H162         8.6400    -1.6980     0.1530 hc         1 8Z4       0.067200
@<TRIPOS>BOND
     1     1     2 2   
     2     2     3 1   
     3     2     7 1   
     4     3     4 1   
     5     3    14 1   
     6     4     5 1   
     7     4     6 1   
     8     4    38 1   
     9     5    39 1   
    10     5    40 1   
    11     5    41 1   
    12     6    42 1   
    13     6    43 1   
    14     6    44 1   
    15     7     8 1   
    16     7    12 1   
    17     7    37 1   
    18     8     9 1   
    19     8    45 1   
    20     8    46 1   
    21     9    10 2   
    22     9    48 1   
    23    10    11 1   
    24    10    49 1   
    25    11    12 1   
    26    11    50 1   
    27    11    51 1   
    28    12    13 1   
    29    12    47 1   
    30    13    14 2   
    31    13    15 1   
    32    15    16 ar  
    33    15    22 ar  
    34    16    17 ar  
    35    16    52 1   
    36    17    18 ar  
    37    17    23 1   
    38    18    19 1   
    39    18    21 ar  
    40    19    20 1   
    41    20    55 1   
    42    20    56 1   
    43    20    57 1   
    44    21    22 ar  
    45    21    54 1   
    46    22    53 1   
    47    23    24 ar  
    48    23    28 ar  
    49    24    25 ar  
    50    24    58 1   
    51    25    26 ar  
    52    25    60 1   
    53    26    27 ar  
    54    26    29 1   
    55    27    28 ar  
    56    27    61 1   
    57    28    59 1   
    58    29    30 2   
    59    29    31 1   
    60    31    32 1   
    61    31    36 1   
    62    32    33 1   
    63    32    62 1   
    64    32    63 1   
    65    33    34 1   
    66    33    35 1   
    67    33    66 1   
    68    34    67 1   
    69    35    36 1   
    70    35    68 1   
    71    35    69 1   
    72    36    64 1   
    73    36    65 1   
@<TRIPOS>SUBSTRUCTURE
     1 8Z4         1 TEMP              0 ****  ****    0 ROOT
