@<TRIPOS>MOLECULE
8Z4
   69    73     1     0     0
SMALL
abcg2


@<TRIPOS>ATOM
      1 O3          -6.6160     2.1940    -0.4400 o          1 8Z4      -0.533000
      2 C28         -5.6790     1.4150    -0.4260 c          1 8Z4       0.558000
      3 N           -4.4700     1.7400     0.1160 n          1 8Z4      -0.178800
      4 C1          -4.1800     3.0900     0.6060 c3         1 8Z4       0.132700
      5 C2          -3.5080     3.0330     1.9700 c3         1 8Z4      -0.101100
      6 C           -3.3510     3.8650    -0.4090 c3         1 8Z4      -0.101100
      7 C27         -5.7240     0.0380    -1.0530 c6         1 8Z4      -0.141700
      8 C26         -7.1400    -0.4820    -1.2450 c6         1 8Z4      -0.029200
      9 C25         -7.7160    -1.0440     0.0170 c2         1 8Z4      -0.209200
     10 C24         -6.9890    -1.3470     1.0880 c2         1 8Z4      -0.225200
     11 C23         -5.5030    -1.1760     1.1600 c6         1 8Z4      -0.037200
     12 C22         -4.8810    -0.9240    -0.2230 c6         1 8Z4      -0.128000
     13 C3          -3.5150    -0.3240    -0.0830 ce         1 8Z4       0.399900
     14 N1          -3.3720     0.9360     0.0670 n2         1 8Z4      -0.447300
     15 C4          -2.3010    -1.1530    -0.0650 ca         1 8Z4      -0.157900
     16 C21         -1.0320    -0.5640    -0.0700 ca         1 8Z4      -0.031000
     17 C9           0.1300    -1.3100    -0.0060 cp         1 8Z4      -0.084000
     18 C7           0.0350    -2.7140     0.0600 ca         1 8Z4       0.167100
     19 O            1.1920    -3.3900     0.0970 os         1 8Z4      -0.333100
     20 C8           1.1550    -4.8030     0.1710 c3         1 8Z4       0.145900
     21 C6          -1.2180    -3.3150     0.0620 ca         1 8Z4      -0.210000
     22 C5          -2.3680    -2.5400    -0.0020 ca         1 8Z4      -0.051000
     23 C10          1.4430    -0.6280    -0.0310 cp         1 8Z4      -0.004000
     24 C20          1.7510     0.2480    -1.0710 ca         1 8Z4      -0.101500
     25 C19          2.9560     0.9310    -1.0910 ca         1 8Z4      -0.077500
     26 C13          3.8950     0.7330    -0.0840 ca         1 8Z4      -0.142600
     27 C12          3.5860    -0.1320     0.9640 ca         1 8Z4      -0.077500
     28 C11          2.3750    -0.8030     0.9900 ca         1 8Z4      -0.101500
     29 C14          5.1550     1.5340    -0.1180 c          1 8Z4       0.617700
     30 O2           5.1160     2.7280    -0.3960 o          1 8Z4      -0.600100
     31 N2           6.3090     0.9090     0.1640 n          1 8Z4      -0.410800
     32 C18          7.5620     1.6510     0.1480 c5         1 8Z4       0.058000
     33 C17          8.6100     0.5880     0.4950 c5         1 8Z4       0.154300
     34 O1           9.8830     0.8510    -0.0290 oh         1 8Z4      -0.647000
     35 C16          8.0120    -0.6730    -0.1060 c5         1 8Z4      -0.097400
     36 C15          6.5370    -0.5360     0.2410 c5         1 8Z4       0.106000
     37 H27         -5.2500     0.1480    -2.0370 hc         1 8Z4       0.077700
     38 H1          -5.1460     3.5790     0.7190 h1         1 8Z4       0.078700
     39 H21C        -2.5100     2.6010     1.9050 hc         1 8Z4       0.043367
     40 H22C        -3.4120     4.0420     2.3720 hc         1 8Z4       0.043367
     41 H23C        -4.0940     2.4450     2.6770 hc         1 8Z4       0.043367
     42 HC1         -3.8760     3.9600    -1.3600 hc         1 8Z4       0.043367
     43 HC2         -3.1470     4.8700    -0.0370 hc         1 8Z4       0.043367
     44 HC3         -2.3950     3.3730    -0.5910 hc         1 8Z4       0.043367
     45 H261        -7.7840     0.3100    -1.6320 hc         1 8Z4       0.063200
     46 H262        -7.1320    -1.2560    -2.0190 hc         1 8Z4       0.063200
     47 H22         -4.8340    -1.8710    -0.7630 hc         1 8Z4       0.071700
     48 H25         -8.7870    -1.2120     0.0370 ha         1 8Z4       0.177000
     49 H24         -7.4760    -1.7410     1.9730 ha         1 8Z4       0.176000
     50 H231        -5.2650    -0.3610     1.8530 hc         1 8Z4       0.056700
     51 H232        -5.0500    -2.0670     1.6030 hc         1 8Z4       0.056700
     52 H21         -0.9560     0.5150    -0.1120 ha         1 8Z4       0.140000
     53 H5          -3.3200    -3.0540     0.0050 ha         1 8Z4       0.114000
     54 H6          -1.3220    -4.3900     0.1070 ha         1 8Z4       0.120000
     55 H81C         2.1900    -5.1350     0.2020 h1         1 8Z4       0.043033
     56 H82C         0.6450    -5.1490     1.0720 h1         1 8Z4       0.043033
     57 H83C         0.6690    -5.2430    -0.7040 h1         1 8Z4       0.043033
     58 H20          1.0410     0.3930    -1.8760 ha         1 8Z4       0.120000
     59 H11          2.1490    -1.4500     1.8270 ha         1 8Z4       0.120000
     60 H19          3.1700     1.6110    -1.9050 ha         1 8Z4       0.122500
     61 H12          4.2790    -0.2700     1.7830 ha         1 8Z4       0.122500
     62 H181         7.7650     2.0590    -0.8470 h1         1 8Z4       0.062700
     63 H182         7.5430     2.4790     0.8590 h1         1 8Z4       0.062700
     64 H151         6.3470    -0.9110     1.2490 h1         1 8Z4       0.052200
     65 H152         5.8890    -1.0790    -0.4460 h1         1 8Z4       0.052200
     66 H17          8.6500     0.4730     1.5870 h1         1 8Z4       0.036700
     67 HA          10.2740     1.5760     0.4670 ho         1 8Z4       0.449000
     68 H161         8.1510    -0.6660    -1.1910 hc         1 8Z4       0.067200
     69 H162         8.4440    -1.5910     0.2920 hc         1 8Z4       0.067200
@<TRIPOS>BOND
     1     1     2 2   
     2     2     3 1   
     3     2     7 1   
     4     3     4 1   
     5     3    14 1   
     6     4     5 1   
     7     4     6 1   
     8     4    38 1   
     9     5    39 1   
    10     5    40 1   
    11     5    41 1   
    12     6    42 1   
    13     6    43 1   
    14     6    44 1   
    15     7     8 1   
    16     7    12 1   
    17     7    37 1   
    18     8     9 1   
    19     8    45 1   
    20     8    46 1   
    21     9    10 2   
    22     9    48 1   
    23    10    11 1   
    24    10    49 1   
    25    11    12 1   
    26    11    50 1   
    27    11    51 1   
    28    12    13 1   
    29    12    47 1   
    30    13    14 2   
    31    13    15 1   
    32    15    16 ar  
    33    15    22 ar  
    34    16    17 ar  
    35    16    52 1   
    36    17    18 ar  
    37    17    23 1   
    38    18    19 1   
    39    18    21 ar  
    40    19    20 1   
    41    20    55 1   
    42    20    56 1   
    43    20    57 1   
    44    21    22 ar  
    45    21    54 1   
    46    22    53 1   
    47    23    24 ar  
    48    23    28 ar  
    49    24    25 ar  
    50    24    58 1   
    51    25    26 ar  
    52    25    60 1   
    53    26    27 ar  
    54    26    29 1   
    55    27    28 ar  
    56    27    61 1   
    57    28    59 1   
    58    29    30 2   
    59    29    31 1   
    60    31    32 1   
    61    31    36 1   
    62    32    33 1   
    63    32    62 1   
    64    32    63 1   
    65    33    34 1   
    66    33    35 1   
    67    33    66 1   
    68    34    67 1   
    69    35    36 1   
    70    35    68 1   
    71    35    69 1   
    72    36    64 1   
    73    36    65 1   
@<TRIPOS>SUBSTRUCTURE
     1 8Z4         1 TEMP              0 ****  ****    0 ROOT
