@<TRIPOS>MOLECULE
8Z5
   15    15     1     0     0
SMALL
bcc


@<TRIPOS>ATOM
      1 C4           0.9310     1.9720     0.4830 ca         1 8Z5      -0.090000
      2 C5           0.9500     0.6780    -0.0190 ca         1 8Z5       0.057900
      3 C6          -0.1860     0.1000    -0.5650 ca         1 8Z5      -0.081000
      4 C3          -0.2550     2.6930     0.4300 ca         1 8Z5      -0.129000
      5 I            2.7380    -0.4290     0.0440 i          1 8Z5      -0.171900
      6 C2          -1.3990     2.1290    -0.1120 ca         1 8Z5      -0.096000
      7 C1          -1.3710     0.8310    -0.6130 ca         1 8Z5      -0.094300
      8 C           -2.5970     0.2210    -1.1970 c3         1 8Z5       0.059300
      9 BR          -3.6580    -0.6780     0.2160 br         1 8Z5      -0.186400
     10 H1           1.8180     2.4220     0.9060 ha         1 8Z5       0.147000
     11 H2          -0.1650    -0.9090    -0.9560 ha         1 8Z5       0.148000
     12 H3          -0.2790     3.7040     0.8150 ha         1 8Z5       0.138000
     13 H4          -2.3170     2.7010    -0.1480 ha         1 8Z5       0.138000
     14 H5          -3.2580     0.9640    -1.6390 h1         1 8Z5       0.079200
     15 H6          -2.3720    -0.5470    -1.9340 h1         1 8Z5       0.079200
@<TRIPOS>BOND
     1     1     2 ar  
     2     1     4 ar  
     3     1    10 1   
     4     2     3 ar  
     5     2     5 1   
     6     3     7 ar  
     7     3    11 1   
     8     4     6 ar  
     9     4    12 1   
    10     6     7 ar  
    11     6    13 1   
    12     7     8 1   
    13     8     9 1   
    14     8    14 1   
    15     8    15 1   
@<TRIPOS>SUBSTRUCTURE
     1 8Z5         1 TEMP              0 ****  ****    0 ROOT
