@<TRIPOS>MOLECULE
8Z5
   15    15     1     0     0
SMALL
No Charge or Current Charge


@<TRIPOS>ATOM
      1 C4           0.9470     1.9840     0.4800 ca         1 8Z5      -0.072000
      2 C5           0.9680     0.6650    -0.0010 ca         1 8Z5       0.195000
      3 C6          -0.1930     0.0920    -0.5450 ca         1 8Z5      -0.063000
      4 C3          -0.2410     2.7330     0.4160 ca         1 8Z5      -0.111000
      5 I            2.7980    -0.4910     0.0990 i          1 8Z5      -0.309000
      6 C2          -1.4050     2.1610    -0.1280 ca         1 8Z5      -0.078000
      7 C1          -1.3870     0.8380    -0.6130 ca         1 8Z5      -0.094300
      8 C           -2.6470     0.2140    -1.1980 c3         1 8Z5       0.141900
      9 Br          -3.6200    -0.8530     0.1740 br         1 8Z5      -0.269000
     10 H1           1.8480     2.4220     0.9000 ha         1 8Z5       0.129000
     11 H2          -0.1620    -0.9310    -0.9110 ha         1 8Z5       0.130000
     12 H3          -0.2610     3.7550     0.7890 ha         1 8Z5       0.120000
     13 H4          -2.3220     2.7460    -0.1700 ha         1 8Z5       0.120000
     14 H5          -3.3410     0.9840    -1.5580 h1         1 8Z5       0.079200
     15 H6          -2.4040    -0.4680    -2.0230 h1         1 8Z5       0.079200
@<TRIPOS>BOND
     1     1     2 ar  
     2     1     4 ar  
     3     1    10 1   
     4     2     3 ar  
     5     2     5 1   
     6     3     7 ar  
     7     3    11 1   
     8     4     6 ar  
     9     4    12 1   
    10     6     7 ar  
    11     6    13 1   
    12     7     8 1   
    13     8     9 1   
    14     8    14 1   
    15     8    15 1   
@<TRIPOS>SUBSTRUCTURE
     1 8Z5         1 TEMP              0 ****  ****    0 ROOT
