@<TRIPOS>MOLECULE
8Z6
   24    25     1     0     0
SMALL
bcc


@<TRIPOS>ATOM
      1 CAA          7.0100     6.7740    -3.7510 c2         1 8Z6      -0.058000
      2 CAB          6.6140     7.2630    -2.5720 ce         1 8Z6      -0.316400
      3 CAC          5.2200     7.7840    -2.4230 c          1 8Z6       0.587300
      4 CAE          4.8340     8.3560    -1.0850 c6         1 8Z6      -0.177400
      5 CAF          5.5780     7.6980     0.0760 c6         1 8Z6       0.026600
      6 CAG          5.1210     8.2270     1.3970 cc         1 8Z6      -0.067400
      7 CAH          4.4980     7.5450     2.3980 cd         1 8Z6      -0.140000
      8 CAI          4.1800     8.3600     3.5200 cd         1 8Z6      -0.149000
      9 CAJ          4.5660     9.6520     3.3510 cc         1 8Z6      -0.103100
     10 CAL          7.0850     7.8600    -0.1210 c6         1 8Z6      -0.177400
     11 CAM          7.5710     7.2800    -1.4240 c          1 8Z6       0.587300
     12 OAD          4.4390     7.7580    -3.3470 o          1 8Z6      -0.520100
     13 OAN          8.6990     6.8570    -1.5430 o          1 8Z6      -0.520100
     14 SAK          5.3230     9.8870     1.8300 ss         1 8Z6      -0.106800
     15 H1           8.0110     6.3890    -3.8950 ha         1 8Z6       0.138000
     16 H2           6.3460     6.7460    -4.6040 ha         1 8Z6       0.138000
     17 H5           5.0730     9.4270    -1.1160 hc         1 8Z6       0.078450
     18 H6           3.7540     8.2750    -0.9630 hc         1 8Z6       0.078450
     19 H7           5.3420     6.6280     0.0780 hc         1 8Z6       0.067700
     20 H9           4.2740     6.4890     2.3330 ha         1 8Z6       0.153000
     21 H10          3.6890     7.9950     4.4110 ha         1 8Z6       0.155000
     22 H11          4.4570    10.4780     4.0370 h4         1 8Z6       0.170000
     23 H13          7.3440     8.9270    -0.1310 hc         1 8Z6       0.078450
     24 H14          7.6460     7.4090     0.6980 hc         1 8Z6       0.078450
@<TRIPOS>BOND
     1     1     2 2   
     2     1    15 1   
     3     1    16 1   
     4     2     3 1   
     5     2    11 1   
     6     3     4 1   
     7     3    12 2   
     8     4     5 1   
     9     4    17 1   
    10     4    18 1   
    11     5     6 1   
    12     5    10 1   
    13     5    19 1   
    14     6     7 2   
    15     6    14 1   
    16     7     8 1   
    17     7    20 1   
    18     8     9 2   
    19     8    21 1   
    20     9    14 1   
    21     9    22 1   
    22    10    11 1   
    23    10    23 1   
    24    10    24 1   
    25    11    13 2   
@<TRIPOS>SUBSTRUCTURE
     1 8Z6         1 TEMP              0 ****  ****    0 ROOT
