@<TRIPOS>MOLECULE
8Z6
   24    25     1     0     0
SMALL
No Charge or Current Charge


@<TRIPOS>ATOM
      1 CAA          7.1330     7.0710    -3.8580 c2         1 8Z6      -0.158000
      2 CAB          6.6190     7.2110    -2.6040 ce         1 8Z6      -0.316400
      3 CAC          5.1860     7.6050    -2.4200 c          1 8Z6       0.587300
      4 CAE          4.7850     8.2310    -1.0830 c6         1 8Z6      -0.177400
      5 CAF          5.5220     7.5990     0.1140 c6         1 8Z6       0.026600
      6 CAG          5.1090     8.2670     1.4060 cc         1 8Z6      -0.212300
      7 CAH          4.5070     7.6150     2.4540 cd         1 8Z6      -0.122000
      8 CAI          4.2150     8.4610     3.5570 cd         1 8Z6      -0.131000
      9 CAJ          4.5910     9.7660     3.3620 cc         1 8Z6      -0.230000
     10 CAL          7.0430     7.7270    -0.1000 c6         1 8Z6      -0.177400
     11 CAM          7.5100     7.0860    -1.4080 c          1 8Z6       0.587300
     12 OAD          4.3600     7.4720    -3.3130 o          1 8Z6      -0.520100
     13 OAN          8.5970     6.5260    -1.4680 o          1 8Z6      -0.520100
     14 SAK          5.3290     9.9790     1.7780 ss         1 8Z6       0.183000
     15 H1           8.1820     6.8250    -4.0340 ha         1 8Z6       0.188000
     16 H2           6.5250     7.1960    -4.7560 ha         1 8Z6       0.188000
     17 H5           5.0900     9.2840    -1.1440 hc         1 8Z6       0.078450
     18 H6           3.6930     8.2100    -0.9730 hc         1 8Z6       0.078450
     19 H7           5.2650     6.5300     0.1550 hc         1 8Z6       0.067700
     20 H9           4.2740     6.5540     2.4450 ha         1 8Z6       0.135000
     21 H10          3.7400     8.1090     4.4680 ha         1 8Z6       0.137000
     22 H11          4.4920    10.6150     4.0260 h4         1 8Z6       0.152000
     23 H13          7.2780     8.7950    -0.1910 hc         1 8Z6       0.078450
     24 H14          7.6290     7.3310     0.7400 hc         1 8Z6       0.078450
@<TRIPOS>BOND
     1     1     2 2   
     2     1    15 1   
     3     1    16 1   
     4     2     3 1   
     5     2    11 1   
     6     3     4 1   
     7     3    12 2   
     8     4     5 1   
     9     4    17 1   
    10     4    18 1   
    11     5     6 1   
    12     5    10 1   
    13     5    19 1   
    14     6     7 2   
    15     6    14 1   
    16     7     8 1   
    17     7    20 1   
    18     8     9 2   
    19     8    21 1   
    20     9    14 1   
    21     9    22 1   
    22    10    11 1   
    23    10    23 1   
    24    10    24 1   
    25    11    13 2   
@<TRIPOS>SUBSTRUCTURE
     1 8Z6         1 TEMP              0 ****  ****    0 ROOT
