@<TRIPOS>MOLECULE
8Z7
   49    51     1     0     0
SMALL
bcc


@<TRIPOS>ATOM
      1 C4           2.3730     0.6540     0.9920 c6         1 8Z7      -0.093400
      2 C14          5.1070    -1.4500    -0.4740 c3         1 8Z7       0.218100
      3 C5           1.1670     0.0130     0.3190 c6         1 8Z7       0.122700
      4 C11         -5.6070     0.3300    -0.3590 ca         1 8Z7      -0.167300
      5 C7          -3.5350     1.4380     0.1690 ca         1 8Z7       0.089600
      6 C8          -4.2760     2.5530     0.5770 ca         1 8Z7      -0.165000
      7 C9          -5.6550     2.5490     0.5090 ca         1 8Z7      -0.106000
      8 C10         -6.3410     1.4340     0.0460 ca         1 8Z7      -0.110000
      9 C12         -4.2160     0.3200    -0.3070 ca         1 8Z7      -0.105000
     10 N1           3.8880    -0.6750    -0.4080 n3         1 8Z7      -0.730600
     11 N2           0.0470     0.9320     0.3330 ns         1 8Z7      -0.584900
     12 C3           3.5660    -0.2870     0.9520 c6         1 8Z7       0.171800
     13 N3          -2.1500     1.5390     0.2250 ns         1 8Z7      -0.494100
     14 F3          -5.8460    -1.2460    -2.0890 f          1 8Z7      -0.234300
     15 F1          -6.0600    -1.9600    -0.0750 f          1 8Z7      -0.234300
     16 F2          -7.6120    -0.7630    -0.9610 f          1 8Z7      -0.234300
     17 O           -1.5560    -0.6700     0.2530 o          1 8Z7      -0.618100
     18 C1           1.5510    -0.4380    -1.0890 c6         1 8Z7      -0.093400
     19 C2           2.7700    -1.3460    -1.0440 c6         1 8Z7       0.171800
     20 C15          6.3330    -0.6250    -0.1750 ca         1 8Z7      -0.089300
     21 C20          6.4700     0.6580    -0.7000 ca         1 8Z7      -0.117000
     22 C19          7.6140     1.4040    -0.4550 ca         1 8Z7      -0.132000
     23 C18          8.6410     0.8780     0.3200 ca         1 8Z7      -0.127000
     24 C17          8.5130    -0.3990     0.8500 ca         1 8Z7      -0.132000
     25 C16          7.3630    -1.1410     0.6050 ca         1 8Z7      -0.117000
     26 H1           2.6320     1.5850     0.4770 hc         1 8Z7       0.054200
     27 H2           2.1400     0.9050     2.0290 hc         1 8Z7       0.054200
     28 H3           5.0870    -2.3260     0.1970 h1         1 8Z7       0.039200
     29 H4           5.1950    -1.8500    -1.4900 h1         1 8Z7       0.039200
     30 H5           0.8760    -0.8660     0.9010 h1         1 8Z7       0.078700
     31 H6          -3.7610     3.4290     0.9520 ha         1 8Z7       0.130000
     32 H7          -6.2050     3.4230     0.8310 ha         1 8Z7       0.137000
     33 H8          -7.4210     1.4450     0.0070 ha         1 8Z7       0.151000
     34 H9          -3.6670    -0.5450    -0.6440 ha         1 8Z7       0.178000
     35 H11          0.2540     1.9080     0.1870 hn         1 8Z7       0.307500
     36 H12          4.4320     0.2100     1.3940 h1         1 8Z7       0.037950
     37 H13          3.3540    -1.1710     1.5810 h1         1 8Z7       0.037950
     38 H14         -1.8000     2.4700     0.3960 hn         1 8Z7       0.312500
     39 H15          0.7190    -0.9650    -1.5590 hc         1 8Z7       0.054200
     40 H16          1.7760     0.4410    -1.7020 hc         1 8Z7       0.054200
     41 H17          3.0610    -1.6210    -2.0610 h1         1 8Z7       0.037950
     42 H18          2.5080    -2.2850    -0.5250 h1         1 8Z7       0.037950
     43 H19          5.6650     1.0750    -1.2920 ha         1 8Z7       0.135500
     44 H20          7.7060     2.4010    -0.8680 ha         1 8Z7       0.129500
     45 H21          9.5320     1.4620     0.5130 ha         1 8Z7       0.129000
     46 H22          9.3030    -0.8160     1.4610 ha         1 8Z7       0.129500
     47 H23          7.2640    -2.1330     1.0300 ha         1 8Z7       0.135500
     48 C6          -1.2360     0.5090     0.2620 c          1 8Z7       0.794100
     49 C13         -6.2870    -0.9030    -0.8690 c3         1 8Z7       0.719200
@<TRIPOS>BOND
     1     1     3 1   
     2     1    12 1   
     3     1    26 1   
     4     1    27 1   
     5     2    10 1   
     6     2    20 1   
     7     2    28 1   
     8     2    29 1   
     9     3    11 1   
    10     3    18 1   
    11     3    30 1   
    12     4     8 ar  
    13     4     9 ar  
    14     4    49 1   
    15     5     6 ar  
    16     5     9 ar  
    17     5    13 1   
    18     6     7 ar  
    19     6    31 1   
    20     7     8 ar  
    21     7    32 1   
    22     8    33 1   
    23     9    34 1   
    24    10    12 1   
    25    10    19 1   
    26    11    35 1   
    27    11    48 1   
    28    12    36 1   
    29    12    37 1   
    30    13    38 1   
    31    13    48 1   
    32    14    49 1   
    33    15    49 1   
    34    16    49 1   
    35    17    48 2   
    36    18    19 1   
    37    18    39 1   
    38    18    40 1   
    39    19    41 1   
    40    19    42 1   
    41    20    21 ar  
    42    20    25 ar  
    43    21    22 ar  
    44    21    43 1   
    45    22    23 ar  
    46    22    44 1   
    47    23    24 ar  
    48    23    45 1   
    49    24    25 ar  
    50    24    46 1   
    51    25    47 1   
@<TRIPOS>SUBSTRUCTURE
     1 8Z7         1 TEMP              0 ****  ****    0 ROOT
