@<TRIPOS>MOLECULE
8Z7
   49    51     1     0     0
SMALL
No Charge or Current Charge


@<TRIPOS>ATOM
      1 C4           2.3860     0.5650     0.9110 c6         1 8Z7      -0.093400
      2 C14          5.2880    -1.2950    -0.7950 c3         1 8Z7       0.218100
      3 C5           1.1970    -0.1170     0.1980 c6         1 8Z7       0.122700
      4 C11         -5.8370     0.3120    -0.1230 ca         1 8Z7      -0.167300
      5 C7          -3.6320     1.3610     0.1670 ca         1 8Z7      -0.003000
      6 C8          -4.2620     2.6070     0.3350 ca         1 8Z7      -0.147000
      7 C9          -5.6600     2.7150     0.2720 ca         1 8Z7      -0.088000
      8 C10         -6.4460     1.5750     0.0420 ca         1 8Z7      -0.092000
      9 C12         -4.4280     0.2170    -0.0660 ca         1 8Z7      -0.087000
     10 N1           4.0090    -0.5610    -0.6360 n3         1 8Z7      -0.730600
     11 N2           0.0020     0.7340     0.2680 ns         1 8Z7      -0.517900
     12 C3           3.6680    -0.2920     0.7900 c6         1 8Z7       0.171800
     13 N3          -2.2120     1.3320     0.2370 ns         1 8Z7      -0.168000
     14 F3          -6.6790    -1.2690    -1.6980 f          1 8Z7      -0.113000
     15 F1          -6.2080    -2.0190     0.2870 f          1 8Z7      -0.113000
     16 F2          -7.9720    -0.7960    -0.0170 f          1 8Z7      -0.113000
     17 O           -1.5730    -0.8830    -0.0110 o          1 8Z7      -0.618100
     18 C1           1.5890    -0.3960    -1.2720 c6         1 8Z7      -0.093400
     19 C2           2.8870    -1.2320    -1.3470 c6         1 8Z7       0.171800
     20 C15          6.4960    -0.5400    -0.2460 ca         1 8Z7      -0.089300
     21 C20          6.9260     0.6520    -0.8630 ca         1 8Z7      -0.099000
     22 C19          8.0390     1.3500    -0.3610 ca         1 8Z7      -0.114000
     23 C18          8.7280     0.8610     0.7610 ca         1 8Z7      -0.109000
     24 C17          8.3040    -0.3260     1.3820 ca         1 8Z7      -0.114000
     25 C16          7.1920    -1.0250     0.8800 ca         1 8Z7      -0.099000
     26 H1           2.5700     1.5570     0.4770 hc         1 8Z7       0.054200
     27 H2           2.1480     0.7210     1.9710 hc         1 8Z7       0.054200
     28 H3           5.2200    -2.2760    -0.3050 h1         1 8Z7       0.039200
     29 H4           5.4720    -1.4870    -1.8610 h1         1 8Z7       0.039200
     30 H5           0.9810    -1.0720     0.7010 h1         1 8Z7       0.078700
     31 H6          -3.6660     3.5000     0.5140 ha         1 8Z7       0.112000
     32 H7          -6.1360     3.6850     0.4000 ha         1 8Z7       0.119000
     33 H8          -7.5280     1.6820    -0.0090 ha         1 8Z7       0.133000
     34 H9          -3.9690    -0.7560    -0.2100 ha         1 8Z7       0.160000
     35 H11          0.1350     1.7290     0.3980 hn         1 8Z7       0.307500
     36 H12          4.4870     0.2440     1.2910 h1         1 8Z7       0.037950
     37 H13          3.5220    -1.2380     1.3330 h1         1 8Z7       0.037950
     38 H14         -1.7960     2.2430     0.3770 hn         1 8Z7       0.146000
     39 H15          0.7790    -0.9310    -1.7840 hc         1 8Z7       0.054200
     40 H16          1.7320     0.5510    -1.8110 hc         1 8Z7       0.054200
     41 H17          3.1450    -1.3860    -2.4050 h1         1 8Z7       0.037950
     42 H18          2.7000    -2.2260    -0.9120 h1         1 8Z7       0.037950
     43 H19          6.3930     1.0360    -1.7300 ha         1 8Z7       0.117500
     44 H20          8.3640     2.2700    -0.8420 ha         1 8Z7       0.111500
     45 H21          9.5880     1.4020     1.1500 ha         1 8Z7       0.111000
     46 H22          8.8370    -0.7050     2.2510 ha         1 8Z7       0.111500
     47 H23          6.8700    -1.9430     1.3680 ha         1 8Z7       0.117500
     48 C6          -1.2960     0.2970     0.1500 c          1 8Z7       0.660100
     49 C13         -6.6790    -0.9440    -0.3860 c3         1 8Z7       0.355300
@<TRIPOS>BOND
     1     1     3 1   
     2     1    12 1   
     3     1    26 1   
     4     1    27 1   
     5     2    10 1   
     6     2    20 1   
     7     2    28 1   
     8     2    29 1   
     9     3    11 1   
    10     3    18 1   
    11     3    30 1   
    12     4     8 ar  
    13     4     9 ar  
    14     4    49 1   
    15     5     6 ar  
    16     5     9 ar  
    17     5    13 1   
    18     6     7 ar  
    19     6    31 1   
    20     7     8 ar  
    21     7    32 1   
    22     8    33 1   
    23     9    34 1   
    24    10    12 1   
    25    10    19 1   
    26    11    35 1   
    27    11    48 1   
    28    12    36 1   
    29    12    37 1   
    30    13    38 1   
    31    13    48 1   
    32    14    49 1   
    33    15    49 1   
    34    16    49 1   
    35    17    48 2   
    36    18    19 1   
    37    18    39 1   
    38    18    40 1   
    39    19    41 1   
    40    19    42 1   
    41    20    21 ar  
    42    20    25 ar  
    43    21    22 ar  
    44    21    43 1   
    45    22    23 ar  
    46    22    44 1   
    47    23    24 ar  
    48    23    45 1   
    49    24    25 ar  
    50    24    46 1   
    51    25    47 1   
@<TRIPOS>SUBSTRUCTURE
     1 8Z7         1 TEMP              0 ****  ****    0 ROOT
