@<TRIPOS>MOLECULE
8Z8
   46    50     1     0     0
SMALL
bcc


@<TRIPOS>ATOM
      1 CAA         -1.0870    -0.7270     0.2310 cc         1 8Z8      -0.328300
      2 CAB          0.2180    -1.0940    -0.1520 cd         1 8Z8       0.387300
      3 CAD         -0.6300    -3.3630    -0.1840 cd         1 8Z8       0.455500
      4 CAF         -2.0340    -1.7500     0.3960 cc         1 8Z8       0.612300
      5 CAI          3.9440     0.2960     0.6810 c6         1 8Z8       0.152100
      6 CAJ          2.6470     0.7690     1.3510 c6         1 8Z8      -0.103400
      7 CAK          1.4980     1.0010     0.3690 c5         1 8Z8       0.243000
      8 CAL         -1.5180     0.6790     0.2930 ca         1 8Z8      -0.122000
      9 CAM         -1.8740     1.3080     1.4800 ca         1 8Z8       0.206900
     10 CAN         -2.3250     2.6080     1.5490 ca         1 8Z8      -0.244500
     11 CAO         -2.4210     3.3020     0.3560 ca         1 8Z8       0.200900
     12 CAP         -2.0940     2.7480    -0.8650 ca         1 8Z8      -0.244500
     13 CAQ         -1.6540     1.4390    -0.8610 ca         1 8Z8       0.206900
     14 CAU          2.4000    -0.4080    -1.2310 c5         1 8Z8       0.243000
     15 CAV          3.6510    -0.7260    -0.4160 c6         1 8Z8      -0.103400
     16 CAY          1.8550     1.9320    -0.7940 c5         1 8Z8      -0.083900
     17 CAZ          2.4180     0.9880    -1.8740 c5         1 8Z8      -0.083900
     18 CBB          1.1270    -4.3320    -0.7410 cc         1 8Z8       0.549200
     19 FAR         -2.8520     4.5630     0.3880 f          1 8Z8      -0.125900
     20 FAS         -1.7530     0.6130     2.6100 f          1 8Z8      -0.120400
     21 FAT         -1.3340     0.8710    -2.0240 f          1 8Z8      -0.120400
     22 NAC          0.3740    -2.4400    -0.3700 na         1 8Z8      -0.024800
     23 NAE         -1.8520    -3.0240     0.2150 nd         1 8Z8      -0.668000
     24 NAH          1.2520    -0.2770    -0.3140 nh         1 8Z8      -0.681000
     25 NBA          1.5080    -3.0780    -0.7150 nd         1 8Z8      -0.618100
     26 NBC         -0.1570    -4.5680    -0.4280 nc         1 8Z8      -0.382300
     27 CL1         -3.6440    -1.3000     0.8410 cl         1 8Z8      -0.140000
     28 H1           4.5610    -0.1910     1.4490 h1         1 8Z8       0.039700
     29 H2           2.3330     0.0150     2.0780 hc         1 8Z8       0.065950
     30 H3           2.8140     1.6860     1.9210 hc         1 8Z8       0.065950
     31 H4           0.6310     1.3430     0.9220 h1         1 8Z8       0.084200
     32 H5          -2.5860     3.0650     2.4940 ha         1 8Z8       0.176000
     33 H6          -2.1810     3.3100    -1.7850 ha         1 8Z8       0.176000
     34 H7           2.2270    -1.1880    -1.9660 h1         1 8Z8       0.084200
     35 H8           4.5120    -0.8020    -1.0840 hc         1 8Z8       0.065950
     36 H9           3.5180    -1.7090     0.0380 hc         1 8Z8       0.065950
     37 H10          4.6400     2.7780     1.6450 h1         1 8Z8       0.029367
     38 H11          5.9630     1.6030     1.7330 h1         1 8Z8       0.029367
     39 H12          5.9740     2.8680     0.4920 h1         1 8Z8       0.029367
     40 H13          0.9620     2.4420    -1.1560 hc         1 8Z8       0.060700
     41 H14          2.5590     2.7030    -0.4910 hc         1 8Z8       0.060700
     42 H15          3.4190     1.2620    -2.1990 hc         1 8Z8       0.060700
     43 H16          1.7740     0.9860    -2.7530 hc         1 8Z8       0.060700
     44 H17          1.8230    -5.1160    -1.0000 h5         1 8Z8       0.072800
     45 OAW          4.6890     1.3540     0.1100 os         1 8Z8      -0.412600
     46 CAX          5.3340     2.1800     1.0440 c3         1 8Z8       0.120700
@<TRIPOS>BOND
     1     1     2 2   
     2     1     4 1   
     3     1     8 1   
     4     2    22 1   
     5     2    24 1   
     6     3    22 1   
     7     3    23 1   
     8     3    26 2   
     9     4    23 2   
    10     4    27 1   
    11     5     6 1   
    12     5    15 1   
    13     5    28 1   
    14     5    45 1   
    15     6     7 1   
    16     6    29 1   
    17     6    30 1   
    18     7    16 1   
    19     7    24 1   
    20     7    31 1   
    21     8     9 ar  
    22     8    13 ar  
    23     9    10 ar  
    24     9    20 1   
    25    10    11 ar  
    26    10    32 1   
    27    11    12 ar  
    28    11    19 1   
    29    12    13 ar  
    30    12    33 1   
    31    13    21 1   
    32    14    15 1   
    33    14    17 1   
    34    14    24 1   
    35    14    34 1   
    36    15    35 1   
    37    15    36 1   
    38    16    17 1   
    39    16    40 1   
    40    16    41 1   
    41    17    42 1   
    42    17    43 1   
    43    18    25 2   
    44    18    26 1   
    45    18    44 1   
    46    22    25 1   
    47    37    46 1   
    48    38    46 1   
    49    39    46 1   
    50    45    46 1   
@<TRIPOS>SUBSTRUCTURE
     1 8Z8         1 TEMP              0 ****  ****    0 ROOT
