@<TRIPOS>MOLECULE
8Z8
   46    50     1     0     0
SMALL
No Charge or Current Charge


@<TRIPOS>ATOM
      1 CAA         -1.1910    -0.8010     0.1040 cc         1 8Z8      -0.263000
      2 CAB          0.1370    -1.1180    -0.1960 cd         1 8Z8       0.475000
      3 CAD         -0.6100    -3.3880     0.0770 cd         1 8Z8       0.455500
      4 CAF         -2.1300    -1.8490     0.4540 cc         1 8Z8       0.547000
      5 CAI          4.0290     0.2280     0.5200 c6         1 8Z8       0.175300
      6 CAJ          2.7810     0.5380     1.4090 c6         1 8Z8      -0.103400
      7 CAK          1.5240     0.9030     0.5750 c5         1 8Z8       0.243000
      8 CAL         -1.5590     0.6300     0.1270 ca         1 8Z8      -0.122000
      9 CAM         -1.9650     1.2670     1.3200 ca         1 8Z8       0.242000
     10 CAN         -2.3260     2.6200     1.3260 ca         1 8Z8      -0.226500
     11 CAO         -2.3040     3.3510     0.1330 ca         1 8Z8       0.236000
     12 CAP         -1.9230     2.7360    -1.0640 ca         1 8Z8      -0.226500
     13 CAQ         -1.5500     1.3850    -1.0660 ca         1 8Z8       0.242000
     14 CAU          2.2730    -0.2350    -1.3530 c5         1 8Z8       0.243000
     15 CAV          3.6490    -0.6230    -0.7250 c6         1 8Z8      -0.103400
     16 CAY          1.7630     2.0320    -0.4780 c5         1 8Z8      -0.083900
     17 CAZ          2.1910     1.2620    -1.7870 c5         1 8Z8      -0.083900
     18 CBB          1.1480    -4.3980    -0.4180 cc         1 8Z8       0.549200
     19 FAR         -2.6570     4.6540     0.1360 f          1 8Z8      -0.161000
     20 FAS         -1.9570     0.5880     2.4900 f          1 8Z8      -0.155500
     21 FAT         -1.2260     0.7990    -2.2410 f          1 8Z8      -0.155500
     22 NAC          0.3730    -2.5070    -0.2770 na         1 8Z8       0.025900
     23 NAE         -1.9010    -3.1560     0.4700 nd         1 8Z8      -0.668000
     24 NAH          1.1960    -0.1830    -0.3550 nh         1 8Z8      -0.819400
     25 NBA          1.5510    -3.1400    -0.5960 nd         1 8Z8      -0.618100
     26 NBC         -0.1450    -4.6070    -0.0090 nc         1 8Z8      -0.382300
     27 Cl1         -3.7680    -1.3720     0.8040 cl         1 8Z8      -0.140000
     28 H1           4.7350    -0.3640     1.1200 h1         1 8Z8       0.039700
     29 H2           2.5460    -0.3520     2.0080 hc         1 8Z8       0.065950
     30 H3           2.9900     1.3330     2.1340 hc         1 8Z8       0.065950
     31 H4           0.7100     1.1540     1.2680 h1         1 8Z8       0.084200
     32 H5          -2.6210     3.1020     2.2530 ha         1 8Z8       0.158000
     33 H6          -1.9180     3.3030    -1.9900 ha         1 8Z8       0.158000
     34 H7           2.0500    -0.9090    -2.1930 h1         1 8Z8       0.084200
     35 H8           4.4360    -0.5440    -1.4850 hc         1 8Z8       0.065950
     36 H9           3.6370    -1.6760    -0.4270 hc         1 8Z8       0.065950
     37 H10          4.6900     2.6750     1.7850 h1         1 8Z8       0.029367
     38 H11          6.0810     1.5630     1.7100 h1         1 8Z8       0.029367
     39 H12          6.0100     2.9840     0.6460 h1         1 8Z8       0.029367
     40 H13          0.8520     2.6110    -0.6510 hc         1 8Z8       0.060700
     41 H14          2.5150     2.7550    -0.1460 hc         1 8Z8       0.060700
     42 H15          3.1380     1.6270    -2.2000 hc         1 8Z8       0.060700
     43 H16          1.4380     1.3930    -2.5720 hc         1 8Z8       0.060700
     44 H17          1.7860    -5.2600    -0.5710 h5         1 8Z8       0.072800
     45 OAW          4.7430     1.4150     0.1000 os         1 8Z8      -0.459000
     46 CAX          5.4090     2.1930     1.1120 c3         1 8Z8       0.143900
@<TRIPOS>BOND
     1     1     2 2   
     2     1     4 1   
     3     1     8 1   
     4     2    22 1   
     5     2    24 1   
     6     3    22 1   
     7     3    23 1   
     8     3    26 2   
     9     4    23 2   
    10     4    27 1   
    11     5     6 1   
    12     5    15 1   
    13     5    28 1   
    14     5    45 1   
    15     6     7 1   
    16     6    29 1   
    17     6    30 1   
    18     7    16 1   
    19     7    24 1   
    20     7    31 1   
    21     8     9 ar  
    22     8    13 ar  
    23     9    10 ar  
    24     9    20 1   
    25    10    11 ar  
    26    10    32 1   
    27    11    12 ar  
    28    11    19 1   
    29    12    13 ar  
    30    12    33 1   
    31    13    21 1   
    32    14    15 1   
    33    14    17 1   
    34    14    24 1   
    35    14    34 1   
    36    15    35 1   
    37    15    36 1   
    38    16    17 1   
    39    16    40 1   
    40    16    41 1   
    41    17    42 1   
    42    17    43 1   
    43    18    25 2   
    44    18    26 1   
    45    18    44 1   
    46    22    25 1   
    47    37    46 1   
    48    38    46 1   
    49    39    46 1   
    50    45    46 1   
@<TRIPOS>SUBSTRUCTURE
     1 8Z8         1 TEMP              0 ****  ****    0 ROOT
