@<TRIPOS>MOLECULE
8Z9
   47    46     1     0     0
SMALL
abcg2


@<TRIPOS>ATOM
      1 C1         160.7630   163.9810   201.2860 c          1 8Z9       0.717000
      2 O1         160.9360   165.1270   200.8260 o          1 8Z9      -0.743000
      3 O2         160.2000   163.0270   200.7090 o          1 8Z9      -0.743000
      4 C2         161.2870   163.6840   202.7080 c3         1 8Z9      -0.208400
      5 C3         161.9760   164.8370   203.4220 c3         1 8Z9      -0.055400
      6 C4         162.3970   164.5180   204.8540 c3         1 8Z9      -0.070400
      7 C5         163.4770   163.4380   204.9690 c3         1 8Z9      -0.049200
      8 C6         163.9630   163.2970   206.3780 c2         1 8Z9      -0.198200
      9 C7         163.7580   162.2800   207.2140 c2         1 8Z9      -0.241200
     10 C8         163.0280   161.0000   206.9500 c3         1 8Z9      -0.040200
     11 C9         163.8880   159.7690   207.2520 c3         1 8Z9      -0.067400
     12 CA         165.1450   159.6540   206.3920 c3         1 8Z9      -0.067400
     13 CB         164.8970   159.5210   204.8910 c3         1 8Z9      -0.076400
     14 CC         164.1750   158.2430   204.4850 c3         1 8Z9      -0.072400
     15 CD         163.9710   158.1300   202.9780 c3         1 8Z9      -0.080400
     16 CE         163.3610   156.7980   202.5580 c3         1 8Z9      -0.069400
     17 CF         163.0110   156.7070   201.0750 c3         1 8Z9      -0.075400
     18 CG         164.2130   156.8120   200.1450 c3         1 8Z9      -0.087100
     19 H2         160.4410   163.3350   203.3140 hc         1 8Z9       0.014200
     20 H3         161.9580   162.8210   202.6420 hc         1 8Z9       0.014200
     21 H4         162.8540   165.1560   202.8520 hc         1 8Z9       0.039700
     22 H5         161.3050   165.6990   203.4430 hc         1 8Z9       0.039700
     23 H6         162.7660   165.4330   205.3280 hc         1 8Z9       0.019200
     24 H7         161.5230   164.2080   205.4370 hc         1 8Z9       0.019200
     25 H8         163.1040   162.4870   204.5860 hc         1 8Z9       0.048200
     26 H9         164.3190   163.7200   204.3270 hc         1 8Z9       0.048200
     27 H10        164.5150   164.1530   206.7600 ha         1 8Z9       0.153000
     28 H11        164.1700   162.3660   208.2170 ha         1 8Z9       0.148000
     29 H12        162.1440   160.9610   207.5950 hc         1 8Z9       0.048700
     30 H13        162.6510   160.9600   205.9260 hc         1 8Z9       0.048700
     31 H14        163.2720   158.8730   207.1430 hc         1 8Z9       0.028200
     32 H15        164.1860   159.7990   208.3040 hc         1 8Z9       0.028200
     33 H16        165.7240   158.7900   206.7330 hc         1 8Z9       0.031200
     34 H17        165.7780   160.5280   206.5680 hc         1 8Z9       0.031200
     35 H18        165.8630   159.5540   204.3770 hc         1 8Z9       0.043700
     36 H19        163.2010   158.1830   204.9820 hc         1 8Z9       0.030200
     37 H20        164.9330   158.2770   202.4780 hc         1 8Z9       0.046200
     38 H21        163.3260   158.9490   202.6390 hc         1 8Z9       0.046200
     39 H22        162.4550   156.6190   203.1450 hc         1 8Z9       0.029200
     40 H23        164.0530   155.9880   202.8170 hc         1 8Z9       0.029200
     41 H24        162.2890   157.4920   200.8280 hc         1 8Z9       0.040200
     42 H25        162.5000   155.7580   200.8900 hc         1 8Z9       0.040200
     43 H26        163.9170   156.6770   199.1040 hc         1 8Z9       0.028367
     44 H27        164.7040   157.7830   200.2190 hc         1 8Z9       0.028367
     45 H28        164.9580   156.0480   200.3770 hc         1 8Z9       0.028367
     46 H29        164.3400   160.3890   204.5240 hc         1 8Z9       0.043700
     47 H30        164.7490   157.3790   204.8400 hc         1 8Z9       0.030200
@<TRIPOS>BOND
     1     1     2 1   
     2     1     3 1   
     3     1     4 1   
     4     4     5 1   
     5     4    19 1   
     6     4    20 1   
     7     5     6 1   
     8     5    21 1   
     9     5    22 1   
    10     6     7 1   
    11     6    23 1   
    12     6    24 1   
    13     7     8 1   
    14     7    25 1   
    15     7    26 1   
    16     8     9 2   
    17     8    27 1   
    18     9    10 1   
    19     9    28 1   
    20    10    11 1   
    21    10    29 1   
    22    10    30 1   
    23    11    12 1   
    24    11    31 1   
    25    11    32 1   
    26    12    13 1   
    27    12    33 1   
    28    12    34 1   
    29    13    14 1   
    30    13    35 1   
    31    13    46 1   
    32    14    15 1   
    33    14    36 1   
    34    14    47 1   
    35    15    16 1   
    36    15    37 1   
    37    15    38 1   
    38    16    17 1   
    39    16    39 1   
    40    16    40 1   
    41    17    18 1   
    42    17    41 1   
    43    17    42 1   
    44    18    43 1   
    45    18    44 1   
    46    18    45 1   
@<TRIPOS>SUBSTRUCTURE
     1 8Z9         1 TEMP              0 ****  ****    0 ROOT
