@<TRIPOS>MOLECULE
8Z9
   47    46     1     0     0
SMALL
No Charge or Current Charge


@<TRIPOS>ATOM
      1 C1         160.7690   163.3130   201.2970 c          1 8Z9       0.717000
      2 O1         161.4730   163.5620   200.3290 o          1 8Z9      -0.743000
      3 O2         159.5480   163.3430   201.2690 o          1 8Z9      -0.743000
      4 C2         161.4590   163.0100   202.6390 c3         1 8Z9      -0.208400
      5 C3         161.6960   164.3260   203.4260 c3         1 8Z9      -0.055400
      6 C4         162.2440   164.1310   204.8610 c3         1 8Z9      -0.070400
      7 C5         163.6630   163.5230   204.9300 c3         1 8Z9      -0.049200
      8 C6         164.1710   163.4090   206.3560 c2         1 8Z9      -0.198200
      9 C7         163.9440   162.4050   207.2220 c2         1 8Z9      -0.241200
     10 C8         163.1110   161.1550   206.9860 c3         1 8Z9      -0.040200
     11 C9         163.8520   159.8480   207.3570 c3         1 8Z9      -0.067400
     12 CA         165.1700   159.5850   206.5830 c3         1 8Z9      -0.067400
     13 CB         165.0540   159.5290   205.0390 c3         1 8Z9      -0.076400
     14 CC         164.0860   158.4490   204.5020 c3         1 8Z9      -0.072400
     15 CD         164.0400   158.4010   202.9590 c3         1 8Z9      -0.080400
     16 CE         163.0650   157.3280   202.4180 c3         1 8Z9      -0.069400
     17 CF         162.9310   157.3070   200.8770 c3         1 8Z9      -0.075400
     18 CG         164.2200   156.9060   200.1290 c3         1 8Z9      -0.087100
     19 H2         160.8090   162.3930   203.2720 hc         1 8Z9       0.014200
     20 H3         162.4490   162.5730   202.4640 hc         1 8Z9       0.014200
     21 H4         162.3800   164.9710   202.8610 hc         1 8Z9       0.039700
     22 H5         160.7450   164.8690   203.4970 hc         1 8Z9       0.039700
     23 H6         162.2570   165.1070   205.3620 hc         1 8Z9       0.019200
     24 H7         161.5510   163.4990   205.4290 hc         1 8Z9       0.019200
     25 H8         163.6590   162.5400   204.4490 hc         1 8Z9       0.048200
     26 H9         164.3510   164.1420   204.3420 hc         1 8Z9       0.048200
     27 H10        164.7880   164.2540   206.6670 ha         1 8Z9       0.153000
     28 H11        164.3780   162.4570   208.2220 ha         1 8Z9       0.148000
     29 H12        162.2030   161.2140   207.5980 hc         1 8Z9       0.048700
     30 H13        162.7600   161.0890   205.9500 hc         1 8Z9       0.048700
     31 H14        163.1700   159.0010   207.2120 hc         1 8Z9       0.028200
     32 H15        164.0800   159.8690   208.4290 hc         1 8Z9       0.028200
     33 H16        165.5960   158.6370   206.9370 hc         1 8Z9       0.031200
     34 H17        165.8980   160.3620   206.8480 hc         1 8Z9       0.031200
     35 H18        166.0530   159.3410   204.6280 hc         1 8Z9       0.043700
     36 H19        163.0740   158.6440   204.8760 hc         1 8Z9       0.030200
     37 H20        165.0500   158.2030   202.5810 hc         1 8Z9       0.046200
     38 H21        163.7400   159.3850   202.5780 hc         1 8Z9       0.046200
     39 H22        162.0720   157.5060   202.8480 hc         1 8Z9       0.029200
     40 H23        163.3840   156.3380   202.7660 hc         1 8Z9       0.029200
     41 H24        162.6010   158.2920   200.5260 hc         1 8Z9       0.040200
     42 H25        162.1390   156.5980   200.6070 hc         1 8Z9       0.040200
     43 H26        164.0260   156.8300   199.0530 hc         1 8Z9       0.028367
     44 H27        165.0110   157.6510   200.2770 hc         1 8Z9       0.028367
     45 H28        164.5860   155.9340   200.4800 hc         1 8Z9       0.028367
     46 H29        164.7490   160.5100   204.6610 hc         1 8Z9       0.043700
     47 H30        164.3890   157.4670   204.8870 hc         1 8Z9       0.030200
@<TRIPOS>BOND
     1     1     2 1   
     2     1     3 1   
     3     1     4 1   
     4     4     5 1   
     5     4    19 1   
     6     4    20 1   
     7     5     6 1   
     8     5    21 1   
     9     5    22 1   
    10     6     7 1   
    11     6    23 1   
    12     6    24 1   
    13     7     8 1   
    14     7    25 1   
    15     7    26 1   
    16     8     9 2   
    17     8    27 1   
    18     9    10 1   
    19     9    28 1   
    20    10    11 1   
    21    10    29 1   
    22    10    30 1   
    23    11    12 1   
    24    11    31 1   
    25    11    32 1   
    26    12    13 1   
    27    12    33 1   
    28    12    34 1   
    29    13    14 1   
    30    13    35 1   
    31    13    46 1   
    32    14    15 1   
    33    14    36 1   
    34    14    47 1   
    35    15    16 1   
    36    15    37 1   
    37    15    38 1   
    38    16    17 1   
    39    16    39 1   
    40    16    40 1   
    41    17    18 1   
    42    17    41 1   
    43    17    42 1   
    44    18    43 1   
    45    18    44 1   
    46    18    45 1   
@<TRIPOS>SUBSTRUCTURE
     1 8Z9         1 TEMP              0 ****  ****    0 ROOT
