@<TRIPOS>MOLECULE
8ZA
   58    60     1     0     0
SMALL
No Charge or Current Charge


@<TRIPOS>ATOM
      1 C4          -5.6380    -2.1500    -0.6760 c3         1 8ZA       0.171800
      2 C14          0.5130     5.3060     1.6140 ca         1 8ZA      -0.101000
      3 C5          -3.8590    -1.0630    -1.9800 c6         1 8ZA       0.171300
      4 C6          -2.3860    -0.5970    -1.9980 c6         1 8ZA      -0.091400
      5 C11         -0.2310     3.4360    -0.3630 ca         1 8ZA      -0.123300
      6 C7          -2.1420     0.4490    -0.8900 c6         1 8ZA       0.131700
      7 C8          -2.6000    -0.0760     0.4910 c6         1 8ZA      -0.091400
      8 C9          -4.0680    -0.5550     0.4230 c6         1 8ZA       0.171300
      9 C10         -0.6280     2.4180    -1.4270 c3         1 8ZA       0.158300
     10 C12         -1.0270     3.6120     0.7860 ca         1 8ZA      -0.095000
     11 C13         -0.6550     4.5420     1.7720 ca         1 8ZA      -0.110500
     12 N1          -4.2660    -1.5830    -0.6440 n3         1 8ZA      -0.717600
     13 N2          -0.7650     1.0260    -0.9160 n          1 8ZA      -0.419800
     14 C3          -6.0500    -2.9360     0.5900 c3         1 8ZA      -0.078400
     15 N3           1.5860     0.9790    -0.5550 ns         1 8ZA      -0.166000
     16 C1          -7.8280    -4.4360     1.6930 c3         1 8ZA      -0.088100
     17 C2          -7.4100    -3.6530     0.4340 c3         1 8ZA      -0.076400
     18 C15          1.3070     5.1430     0.4660 ca         1 8ZA      -0.110500
     19 C16          0.9350     4.2140    -0.5210 ca         1 8ZA      -0.095000
     20 C17          0.3860     0.2780    -0.5460 c          1 8ZA       0.660100
     21 O            0.3150    -0.9030    -0.2370 o          1 8ZA      -0.607100
     22 C18          2.9250     0.5880    -0.2900 ca         1 8ZA       0.005000
     23 C23          3.3390    -0.7570    -0.1710 ca         1 8ZA      -0.114000
     24 C22          4.6850    -1.0690     0.0870 ca         1 8ZA       0.145000
     25 Cl2          5.1570    -2.7630     0.2280 cl         1 8ZA      -0.172000
     26 C21          5.6360    -0.0380     0.2240 ca         1 8ZA       0.087000
     27 Cl1          7.3330    -0.3960     0.5480 cl         1 8ZA      -0.175000
     28 C20          5.2320     1.3010     0.0990 ca         1 8ZA      -0.068000
     29 C19          3.8850     1.6100    -0.1590 ca         1 8ZA      -0.167000
     30 H1          -6.3690    -1.3480    -0.8470 h1         1 8ZA       0.026700
     31 H2          -5.7160    -2.8390    -1.5280 h1         1 8ZA       0.026700
     32 H4          -4.5050    -0.2200    -2.2690 h1         1 8ZA       0.029200
     33 H5          -3.9870    -1.8420    -2.7460 h1         1 8ZA       0.029200
     34 H6          -1.7290    -1.4650    -1.8580 hc         1 8ZA       0.064950
     35 H7          -2.1450    -0.1700    -2.9800 hc         1 8ZA       0.064950
     36 H8          -2.8330     1.2750    -1.1130 h1         1 8ZA       0.039700
     37 H9          -1.9750    -0.9140     0.8210 hc         1 8ZA       0.064950
     38 H10         -2.5020     0.7100     1.2500 hc         1 8ZA       0.064950
     39 H11         -4.3340    -0.9580     1.4100 h1         1 8ZA       0.029200
     40 H12         -4.7220     0.3110     0.2400 h1         1 8ZA       0.029200
     41 H13         -1.5720     2.7440    -1.8800 h1         1 8ZA       0.051700
     42 H14          0.1120     2.4210    -2.2380 h1         1 8ZA       0.051700
     43 H15         -1.9350     3.0290     0.9160 ha         1 8ZA       0.115000
     44 H16         -1.2720     4.6700     2.6580 ha         1 8ZA       0.116000
     45 H18         -5.2750    -3.6780     0.8180 hc         1 8ZA       0.047700
     46 H19         -6.1110    -2.2560     1.4470 hc         1 8ZA       0.047700
     47 H20          1.4860     1.9590    -0.7790 hn         1 8ZA       0.148000
     48 H21         -7.0880    -5.2080     1.9340 hc         1 8ZA       0.032367
     49 H22         -7.9220    -3.7650     2.5550 hc         1 8ZA       0.032367
     50 H23         -8.7960    -4.9270     1.5340 hc         1 8ZA       0.032367
     51 H24         -8.1850    -2.9130     0.2000 hc         1 8ZA       0.035200
     52 H25         -7.3600    -4.3450    -0.4160 hc         1 8ZA       0.035200
     53 H26          2.2090     5.7370     0.3400 ha         1 8ZA       0.116000
     54 H27          1.5560     4.1000    -1.4080 ha         1 8ZA       0.115000
     55 H28          2.6370    -1.5770    -0.2840 ha         1 8ZA       0.159000
     56 H29          5.9630     2.0990     0.2020 ha         1 8ZA       0.130000
     57 H30          3.5870     2.6520    -0.2520 ha         1 8ZA       0.115000
     58 H3           0.8010     6.0260     2.3770 ha         1 8ZA       0.115000
@<TRIPOS>BOND
     1     1    12 1   
     2     1    14 1   
     3     1    30 1   
     4     1    31 1   
     5     2    11 ar  
     6     2    18 ar  
     7     2    58 1   
     8     3     4 1   
     9     3    12 1   
    10     3    32 1   
    11     3    33 1   
    12     4     6 1   
    13     4    34 1   
    14     4    35 1   
    15     5     9 1   
    16     5    10 ar  
    17     5    19 ar  
    18     6     7 1   
    19     6    13 1   
    20     6    36 1   
    21     7     8 1   
    22     7    37 1   
    23     7    38 1   
    24     8    12 1   
    25     8    39 1   
    26     8    40 1   
    27     9    13 1   
    28     9    41 1   
    29     9    42 1   
    30    10    11 ar  
    31    10    43 1   
    32    11    44 1   
    33    13    20 1   
    34    14    17 1   
    35    14    45 1   
    36    14    46 1   
    37    15    20 1   
    38    15    22 1   
    39    15    47 1   
    40    16    17 1   
    41    16    48 1   
    42    16    49 1   
    43    16    50 1   
    44    17    51 1   
    45    17    52 1   
    46    18    19 ar  
    47    18    53 1   
    48    19    54 1   
    49    20    21 2   
    50    22    23 ar  
    51    22    29 ar  
    52    23    24 ar  
    53    23    55 1   
    54    24    25 1   
    55    24    26 ar  
    56    26    27 1   
    57    26    28 ar  
    58    28    29 ar  
    59    28    56 1   
    60    29    57 1   
@<TRIPOS>SUBSTRUCTURE
     1 8ZA         1 TEMP              0 ****  ****    0 ROOT
