@<TRIPOS>MOLECULE
8ZA
   58    60     1     0     0
SMALL
bcc


@<TRIPOS>ATOM
      1 C4          -5.2380    -1.8040    -0.5360 c3         1 8ZA       0.171800
      2 C14         -1.5710     4.6430     2.3360 ca         1 8ZA      -0.119000
      3 C5          -3.5340    -0.8620    -1.9410 c6         1 8ZA       0.171300
      4 C6          -2.0670    -0.4650    -2.0300 c6         1 8ZA      -0.091400
      5 C11         -0.7840     3.3780    -0.0250 ca         1 8ZA      -0.123300
      6 C7          -1.7820     0.6630    -1.0440 c6         1 8ZA       0.131700
      7 C8          -2.2230     0.2660     0.3620 c6         1 8ZA      -0.091400
      8 C9          -3.6800    -0.1750     0.3390 c6         1 8ZA       0.171300
      9 C10         -0.3720     2.6610    -1.2880 c3         1 8ZA       0.158300
     10 C12         -1.9670     4.1040     0.0250 ca         1 8ZA      -0.113000
     11 C13         -2.3610     4.7360     1.2000 ca         1 8ZA      -0.128500
     12 N1          -3.8890    -1.2700    -0.5940 n3         1 8ZA      -0.717600
     13 N2          -0.4250     1.2120    -1.1420 n          1 8ZA      -0.486800
     14 C3          -5.5240    -2.6180     0.7190 c3         1 8ZA      -0.078400
     15 N3           1.8900     0.9980    -1.0700 ns         1 8ZA      -0.492100
     16 C1          -7.1940    -4.1110     1.9100 c3         1 8ZA      -0.088100
     17 C2          -6.8960    -3.2800     0.6700 c3         1 8ZA      -0.076400
     18 C15         -0.3850     3.9180     2.2930 ca         1 8ZA      -0.128500
     19 C16          0.0050     3.2910     1.1200 ca         1 8ZA      -0.113000
     20 C17          0.6480     0.4200    -0.8780 c          1 8ZA       0.794100
     21 O            0.5450    -0.7380    -0.5040 o          1 8ZA      -0.607100
     22 C18          3.1120     0.3780    -0.8330 ca         1 8ZA       0.097600
     23 C23          3.3130    -0.5570     0.1820 ca         1 8ZA      -0.132000
     24 C22          4.5730    -1.0970     0.3830 ca         1 8ZA       0.053400
     25 CL2          4.7810    -2.2530     1.6450 cl         1 8ZA      -0.080400
     26 C21          5.6530    -0.7150    -0.4020 ca         1 8ZA      -0.004600
     27 CL1          7.2190    -1.3900    -0.1530 cl         1 8ZA      -0.083400
     28 C20          5.4570     0.2270    -1.3990 ca         1 8ZA      -0.086000
     29 C19          4.2020     0.7640    -1.6160 ca         1 8ZA      -0.185000
     30 H1          -5.9970    -1.0090    -0.6400 h1         1 8ZA       0.026700
     31 H2          -5.3670    -2.4630    -1.4000 h1         1 8ZA       0.026700
     32 H4          -4.1620    -0.0210    -2.2900 h1         1 8ZA       0.029200
     33 H5          -3.7220    -1.6950    -2.6220 h1         1 8ZA       0.029200
     34 H6          -1.4470    -1.3340    -1.8150 hc         1 8ZA       0.064950
     35 H7          -1.8410    -0.1360    -3.0470 hc         1 8ZA       0.064950
     36 H8          -2.4280     1.4950    -1.3450 h1         1 8ZA       0.039700
     37 H9          -1.6030    -0.5450     0.7430 hc         1 8ZA       0.064950
     38 H10         -2.1180     1.1140     1.0420 hc         1 8ZA       0.064950
     39 H11         -3.9670    -0.4910     1.3430 h1         1 8ZA       0.029200
     40 H12         -4.3240     0.6880     0.0860 h1         1 8ZA       0.029200
     41 H13         -1.0310     2.9450    -2.1100 h1         1 8ZA       0.051700
     42 H14          0.6190     2.9970    -1.5850 h1         1 8ZA       0.051700
     43 H15         -2.5900     4.1750    -0.8590 ha         1 8ZA       0.133000
     44 H16         -3.2860     5.2990     1.2240 ha         1 8ZA       0.134000
     45 H18         -4.7490    -3.3830     0.8270 hc         1 8ZA       0.047700
     46 H19         -5.4680    -1.9900     1.6130 hc         1 8ZA       0.047700
     47 H20          1.9510     1.8010    -1.6740 hn         1 8ZA       0.314500
     48 H21         -6.4530    -4.9030     2.0400 hc         1 8ZA       0.032367
     49 H22         -7.1800    -3.4960     2.8120 hc         1 8ZA       0.032367
     50 H23         -8.1740    -4.5840     1.8490 hc         1 8ZA       0.032367
     51 H24         -7.6670    -2.5120     0.5520 hc         1 8ZA       0.035200
     52 H25         -6.9610    -3.9140    -0.2200 hc         1 8ZA       0.035200
     53 H26          0.2380     3.8440     3.1750 ha         1 8ZA       0.134000
     54 H27          0.9320     2.7300     1.0980 ha         1 8ZA       0.133000
     55 H28          2.5040    -0.8620     0.8270 ha         1 8ZA       0.177000
     56 H29          6.2870     0.5370    -2.0190 ha         1 8ZA       0.148000
     57 H30          4.0710     1.4930    -2.4060 ha         1 8ZA       0.133000
     58 H3          -1.8750     5.1340     3.2520 ha         1 8ZA       0.133000
@<TRIPOS>BOND
     1     1    12 1   
     2     1    14 1   
     3     1    30 1   
     4     1    31 1   
     5     2    11 ar  
     6     2    18 ar  
     7     2    58 1   
     8     3     4 1   
     9     3    12 1   
    10     3    32 1   
    11     3    33 1   
    12     4     6 1   
    13     4    34 1   
    14     4    35 1   
    15     5     9 1   
    16     5    10 ar  
    17     5    19 ar  
    18     6     7 1   
    19     6    13 1   
    20     6    36 1   
    21     7     8 1   
    22     7    37 1   
    23     7    38 1   
    24     8    12 1   
    25     8    39 1   
    26     8    40 1   
    27     9    13 1   
    28     9    41 1   
    29     9    42 1   
    30    10    11 ar  
    31    10    43 1   
    32    11    44 1   
    33    13    20 1   
    34    14    17 1   
    35    14    45 1   
    36    14    46 1   
    37    15    20 1   
    38    15    22 1   
    39    15    47 1   
    40    16    17 1   
    41    16    48 1   
    42    16    49 1   
    43    16    50 1   
    44    17    51 1   
    45    17    52 1   
    46    18    19 ar  
    47    18    53 1   
    48    19    54 1   
    49    20    21 2   
    50    22    23 ar  
    51    22    29 ar  
    52    23    24 ar  
    53    23    55 1   
    54    24    25 1   
    55    24    26 ar  
    56    26    27 1   
    57    26    28 ar  
    58    28    29 ar  
    59    28    56 1   
    60    29    57 1   
@<TRIPOS>SUBSTRUCTURE
     1 8ZA         1 TEMP              0 ****  ****    0 ROOT
