@<TRIPOS>MOLECULE
8ZB
   37    39     1     0     0
SMALL
No Charge or Current Charge


@<TRIPOS>ATOM
      1 C24          5.0130    -2.4520    -1.3120 c3         1 8ZB      -0.091100
      2 C28          4.0290    -1.2660    -1.3530 c3         1 8ZB      -0.072400
      3 C31          3.7060    -0.6970     0.0480 c3         1 8ZB      -0.078400
      4 C36          2.7400     0.5120     0.0360 c5         1 8ZB       0.164300
      5 C38          0.4600     1.0620    -0.0410 c5         1 8ZB       0.320300
      6 C39          1.1580     1.9720     1.0440 c5         1 8ZB       0.100300
      7 C40          2.3770     1.0910     1.4370 c5         1 8ZB       0.090300
      8 C49         -0.9780    -0.1740     1.6680 cc         1 8ZB       0.412700
      9 C50         -2.6440    -0.7190     0.4180 ca         1 8ZB      -0.099600
     10 C51         -1.7790    -0.0470    -0.4080 ca         1 8ZB       0.120500
     11 C53         -3.2270    -0.3300    -2.1560 ca         1 8ZB       0.181900
     12 C55         -3.8490    -1.2020    -0.1330 ca         1 8ZB       0.450900
     13 N47         -0.7180     0.3020     0.3780 na         1 8ZB      -0.309300
     14 N48         -2.1640    -0.8100     1.7280 nd         1 8ZB      -0.558100
     15 N52         -2.0470     0.1660    -1.7110 nb         1 8ZB      -0.221000
     16 N54         -4.1490    -1.0070    -1.4270 nb         1 8ZB      -0.303000
     17 N57         -4.7740    -1.8760     0.6010 nv         1 8ZB      -1.063900
     18 O37          1.4600     0.1140    -0.4910 os         1 8ZB      -0.445000
     19 O41          1.6450     3.2170     0.5230 oh         1 8ZB      -0.702000
     20 O42          3.4190     1.8920     2.0280 oh         1 8ZB      -0.707000
     21 H2           5.9670    -2.1500    -0.8650 hc         1 8ZB       0.033367
     22 H1           4.5990    -3.2780    -0.7220 hc         1 8ZB       0.033367
     23 H29          5.2100    -2.8200    -2.3260 hc         1 8ZB       0.033367
     24 H28          4.4550    -0.4710    -1.9790 hc         1 8ZB       0.048200
     25 H33          3.1010    -1.5920    -1.8400 hc         1 8ZB       0.048200
     26 H35          3.2830    -1.4970     0.6680 hc         1 8ZB       0.048700
     27 H31          4.6460    -0.4000     0.5280 hc         1 8ZB       0.048700
     28 H61          3.1600     1.2930    -0.6140 h1         1 8ZB       0.078700
     29 H62          0.1330     1.6890    -0.8810 h2         1 8ZB       0.125700
     30 H44          0.5000     2.1530     1.9060 h1         1 8ZB       0.078700
     31 H43          2.0700     0.2850     2.1200 h1         1 8ZB       0.056700
     32 H58         -0.2900    -0.0350     2.4940 h5         1 8ZB       0.073800
     33 H56         -3.4590    -0.1670    -3.2070 h5         1 8ZB       0.047100
     34 H60         -4.6680    -1.8350     1.6120 hn         1 8ZB       0.506000
     35 H59         -5.7250    -1.9290     0.2450 hn         1 8ZB       0.506000
     36 H46          2.5250     3.3090     0.9730 ho         1 8ZB       0.524000
     37 H45          4.0590     1.2770     2.4620 ho         1 8ZB       0.517000
@<TRIPOS>BOND
     1     1     2 1   
     2     1    21 1   
     3     1    22 1   
     4     1    23 1   
     5     2     3 1   
     6     2    24 1   
     7     2    25 1   
     8     3     4 1   
     9     3    26 1   
    10     3    27 1   
    11     4     7 1   
    12     4    18 1   
    13     4    28 1   
    14     5     6 1   
    15     5    13 1   
    16     5    18 1   
    17     5    29 1   
    18     6     7 1   
    19     6    19 1   
    20     6    30 1   
    21     7    20 1   
    22     7    31 1   
    23     8    13 1   
    24     8    14 2   
    25     8    32 1   
    26     9    10 ar  
    27     9    12 ar  
    28     9    14 1   
    29    10    13 1   
    30    10    15 ar  
    31    11    15 ar  
    32    11    16 ar  
    33    11    33 1   
    34    12    16 ar  
    35    12    17 1   
    36    17    34 1   
    37    17    35 1   
    38    19    36 1   
    39    20    37 1   
@<TRIPOS>SUBSTRUCTURE
     1 8ZB         1 TEMP              0 ****  ****    0 ROOT
