@<TRIPOS>MOLECULE
8ZB
   37    39     1     0     0
SMALL
abcg2


@<TRIPOS>ATOM
      1 C24          5.1920    -2.5530    -0.2780 c3         1 8ZB      -0.091100
      2 C28          4.3000    -1.4390    -0.8060 c3         1 8ZB      -0.072400
      3 C31          3.5820    -0.6960     0.3150 c3         1 8ZB      -0.078400
      4 C36          2.7890     0.5040    -0.1530 c5         1 8ZB       0.164300
      5 C38          0.5860     0.8080    -0.8600 c5         1 8ZB       0.320300
      6 C39          0.8920     1.8990     0.1640 c5         1 8ZB       0.100300
      7 C40          2.0350     1.2450     0.9490 c5         1 8ZB       0.090300
      8 C49         -0.2650    -1.3790     0.1380 cc         1 8ZB       0.412700
      9 C50         -2.3450    -1.0160     0.1800 ca         1 8ZB      -0.099600
     10 C51         -1.7690     0.1280    -0.3510 ca         1 8ZB       0.120500
     11 C53         -3.7140     1.1160    -0.5900 ca         1 8ZB       0.181900
     12 C55         -3.7470    -1.0080     0.2990 ca         1 8ZB       0.450900
     13 N47         -0.4290    -0.1200    -0.3700 na         1 8ZB      -0.309300
     14 N48         -1.3860    -1.9470     0.4790 nd         1 8ZB      -0.558100
     15 N52         -2.4060     1.2270    -0.7510 nb         1 8ZB      -0.221000
     16 N54         -4.4020     0.0880    -0.1000 nb         1 8ZB      -0.303000
     17 N57         -4.4370    -2.0440     0.7780 nv         1 8ZB      -1.063900
     18 O37          1.7710     0.1100    -1.0790 os         1 8ZB      -0.445000
     19 O41          1.3400     3.0280    -0.5340 oh         1 8ZB      -0.702000
     20 O42          2.8830     2.1610     1.5820 oh         1 8ZB      -0.707000
     21 H2           5.9690    -2.1590     0.3800 hc         1 8ZB       0.033367
     22 H1           4.6170    -3.2840     0.2930 hc         1 8ZB       0.033367
     23 H29          5.6860    -3.0850    -1.0910 hc         1 8ZB       0.033367
     24 H28          4.9000    -0.7290    -1.3830 hc         1 8ZB       0.048200
     25 H33          3.5670    -1.8580    -1.5000 hc         1 8ZB       0.048200
     26 H35          2.9310    -1.3850     0.8650 hc         1 8ZB       0.048700
     27 H31          4.3190    -0.3300     1.0370 hc         1 8ZB       0.048700
     28 H61          3.4690     1.2050    -0.6570 h1         1 8ZB       0.078700
     29 H62          0.2060     1.2320    -1.7940 h2         1 8ZB       0.125700
     30 H44          0.0210     2.1270     0.7920 h1         1 8ZB       0.078700
     31 H43          1.6150     0.5250     1.6630 h1         1 8ZB       0.056700
     32 H58          0.7070    -1.8360     0.2300 h5         1 8ZB       0.073800
     33 H56         -4.3070     1.9710    -0.8950 h5         1 8ZB       0.047100
     34 H60         -3.9670    -2.8510     1.1490 hn         1 8ZB       0.506000
     35 H59         -5.4330    -1.9760     0.8980 hn         1 8ZB       0.506000
     36 H46          1.9780     3.4870     0.0270 ho         1 8ZB       0.524000
     37 H45          2.4960     2.4140     2.4260 ho         1 8ZB       0.517000
@<TRIPOS>BOND
     1     1     2 1   
     2     1    21 1   
     3     1    22 1   
     4     1    23 1   
     5     2     3 1   
     6     2    24 1   
     7     2    25 1   
     8     3     4 1   
     9     3    26 1   
    10     3    27 1   
    11     4     7 1   
    12     4    18 1   
    13     4    28 1   
    14     5     6 1   
    15     5    13 1   
    16     5    18 1   
    17     5    29 1   
    18     6     7 1   
    19     6    19 1   
    20     6    30 1   
    21     7    20 1   
    22     7    31 1   
    23     8    13 1   
    24     8    14 2   
    25     8    32 1   
    26     9    10 ar  
    27     9    12 ar  
    28     9    14 1   
    29    10    13 1   
    30    10    15 ar  
    31    11    15 ar  
    32    11    16 ar  
    33    11    33 1   
    34    12    16 ar  
    35    12    17 1   
    36    17    34 1   
    37    17    35 1   
    38    19    36 1   
    39    20    37 1   
@<TRIPOS>SUBSTRUCTURE
     1 8ZB         1 TEMP              0 ****  ****    0 ROOT
