@<TRIPOS>MOLECULE
8ZC
   34    36     1     0     0
SMALL
No Charge or Current Charge


@<TRIPOS>ATOM
      1 C1           6.4300     2.8510    27.5110 c          1 8ZC       0.654300
      2 C10          5.4130     9.1940    28.1370 ca         1 8ZC      -0.162000
      3 C11          4.7100     7.9770    28.1700 ca         1 8ZC      -0.055000
      4 C12          1.8360     4.0120    28.9730 cc         1 8ZC      -0.080000
      5 C13          1.5750     2.8170    29.6470 cd         1 8ZC      -0.172000
      6 C14          2.5230     1.7320    29.7450 cd         1 8ZC      -0.065000
      7 C15          3.7580     1.8640    29.1580 cc         1 8ZC      -0.141000
      8 C16          4.0230     3.0720    28.4430 cc         1 8ZC       0.008000
      9 C2           5.1350     3.5420    27.7650 cd         1 8ZC      -0.363200
     10 C3           4.8030     4.8560    27.3310 cd         1 8ZC       0.310000
     11 C4           3.5460     5.2300    27.7290 cc         1 8ZC      -0.374300
     12 C5           2.8420     6.4600    27.3130 c          1 8ZC       0.633900
     13 C6           3.6330     7.7500    27.2800 ca         1 8ZC      -0.176600
     14 C7           3.2520     8.7780    26.3890 ca         1 8ZC      -0.055000
     15 C8           3.9590     9.9930    26.3600 ca         1 8ZC      -0.162000
     16 C9           5.0390    10.1960    27.2300 ca         1 8ZC       0.184000
     17 N1           6.5240     1.5560    27.8520 nt         1 8ZC      -0.587000
     18 N2           5.6650     5.5490    26.5570 nv         1 8ZC      -0.950000
     19 O1           7.3960     3.3910    26.9970 o          1 8ZC      -0.648100
     20 O2           1.6330     6.4780    27.1240 o          1 8ZC      -0.573100
     21 F1           5.7150    11.3650    27.2030 f          1 8ZC      -0.174000
     22 N3           3.0770     4.0690    28.3240 na         1 8ZC       0.212100
     23 H2           4.9960     7.2190    28.8970 ha         1 8ZC       0.131000
     24 H3           1.1660     4.8570    28.9080 h4         1 8ZC       0.181000
     25 H4           0.6150     2.7070    30.1430 ha         1 8ZC       0.138000
     26 H5           2.2720     0.8320    30.2990 ha         1 8ZC       0.125000
     27 H6           4.4890     1.0770    29.2720 ha         1 8ZC       0.138000
     28 H7           2.4120     8.6320    25.7110 ha         1 8ZC       0.131000
     29 H8           3.6690    10.7790    25.6660 ha         1 8ZC       0.137000
     30 H9           7.3870     1.0650    27.6760 hn         1 8ZC       0.301000
     31 H10          5.7200     1.0710    28.2070 hn         1 8ZC       0.301000
     32 H11          5.5620     6.5530    26.4470 hn         1 8ZC       0.507500
     33 H12          6.6040     5.1600    26.4520 hn         1 8ZC       0.507500
     34 H1           6.2430     9.3640    28.8190 ha         1 8ZC       0.137000
@<TRIPOS>BOND
     1     1     9 1   
     2     1    17 1   
     3     1    19 2   
     4     2     3 ar  
     5     2    16 ar  
     6     2    34 1   
     7     3    13 ar  
     8     3    23 1   
     9     4     5 2   
    10     4    22 1   
    11     4    24 1   
    12     5     6 1   
    13     5    25 1   
    14     6     7 2   
    15     6    26 1   
    16     7     8 1   
    17     7    27 1   
    18     8     9 2   
    19     8    22 1   
    20     9    10 1   
    21    10    11 2   
    22    10    18 1   
    23    11    12 1   
    24    11    22 1   
    25    12    13 1   
    26    12    20 2   
    27    13    14 ar  
    28    14    15 ar  
    29    14    28 1   
    30    15    16 ar  
    31    15    29 1   
    32    16    21 1   
    33    17    30 1   
    34    17    31 1   
    35    18    32 1   
    36    18    33 1   
@<TRIPOS>SUBSTRUCTURE
     1 8ZC         1 TEMP              0 ****  ****    0 ROOT
