@<TRIPOS>MOLECULE
8ZC
   34    36     1     0     0
SMALL
bcc


@<TRIPOS>ATOM
      1 C1           6.4210     2.8840    27.5370 c          1 8ZC       0.721300
      2 C10          5.3110     9.3810    28.1150 ca         1 8ZC      -0.180000
      3 C11          4.6320     8.1960    28.3570 ca         1 8ZC      -0.073000
      4 C12          1.8520     3.9440    29.0320 cc         1 8ZC      -0.047300
      5 C13          1.5140     2.7540    29.6040 cd         1 8ZC      -0.190000
      6 C14          2.4530     1.7110    29.6470 cd         1 8ZC      -0.083000
      7 C15          3.6930     1.8870    29.0940 cc         1 8ZC      -0.159000
      8 C16          4.0180     3.1060    28.4760 cc         1 8ZC       0.058700
      9 C2           5.1830     3.5900    27.8510 cd         1 8ZC      -0.363200
     10 C3           4.9520     4.9490    27.5280 cd         1 8ZC       0.310000
     11 C4           3.6370     5.2820    27.9290 cc         1 8ZC      -0.374300
     12 C5           2.8930     6.4900    27.7600 c          1 8ZC       0.633900
     13 C6           3.6630     7.7380    27.4680 ca         1 8ZC      -0.176600
     14 C7           3.3560     8.4960    26.3410 ca         1 8ZC      -0.073000
     15 C8           4.0420     9.6700    26.0730 ca         1 8ZC      -0.180000
     16 C9           5.0110    10.0880    26.9660 ca         1 8ZC       0.148900
     17 N1           6.3840     1.5300    27.5170 nt         1 8ZC      -0.654000
     18 N2           5.8300     5.7160    26.8630 nv         1 8ZC      -0.839600
     19 O1           7.4660     3.4940    27.3090 o          1 8ZC      -0.648100
     20 O2           1.6700     6.5690    27.8560 o          1 8ZC      -0.573100
     21 F1           5.6850    11.2160    26.7060 f          1 8ZC      -0.138900
     22 N3           3.0830     4.1160    28.4880 na         1 8ZC       0.110700
     23 H2           4.8670     7.6250    29.2470 ha         1 8ZC       0.149000
     24 H3           1.1780     4.7810    28.9790 h4         1 8ZC       0.199000
     25 H4           0.5260     2.6390    30.0240 ha         1 8ZC       0.156000
     26 H5           2.2030     0.7730    30.1220 ha         1 8ZC       0.143000
     27 H6           4.4320     1.1020    29.1530 ha         1 8ZC       0.156000
     28 H7           2.5950     8.1570    25.6510 ha         1 8ZC       0.149000
     29 H8           3.8260    10.2500    25.1860 ha         1 8ZC       0.155000
     30 H9           7.2150     1.0540    27.2010 hn         1 8ZC       0.301000
     31 H10          5.5220     1.0440    27.3340 hn         1 8ZC       0.301000
     32 H11          5.6730     6.6960    26.7220 hn         1 8ZC       0.452300
     33 H12          6.7760     5.3780    26.7960 hn         1 8ZC       0.452300
     34 H1           6.0620     9.7420    28.8040 ha         1 8ZC       0.155000
@<TRIPOS>BOND
     1     1     9 1   
     2     1    17 1   
     3     1    19 2   
     4     2     3 ar  
     5     2    16 ar  
     6     2    34 1   
     7     3    13 ar  
     8     3    23 1   
     9     4     5 2   
    10     4    22 1   
    11     4    24 1   
    12     5     6 1   
    13     5    25 1   
    14     6     7 2   
    15     6    26 1   
    16     7     8 1   
    17     7    27 1   
    18     8     9 2   
    19     8    22 1   
    20     9    10 1   
    21    10    11 2   
    22    10    18 1   
    23    11    12 1   
    24    11    22 1   
    25    12    13 1   
    26    12    20 2   
    27    13    14 ar  
    28    14    15 ar  
    29    14    28 1   
    30    15    16 ar  
    31    15    29 1   
    32    16    21 1   
    33    17    30 1   
    34    17    31 1   
    35    18    32 1   
    36    18    33 1   
@<TRIPOS>SUBSTRUCTURE
     1 8ZC         1 TEMP              0 ****  ****    0 ROOT
