@<TRIPOS>MOLECULE
8ZD
   74    76     1     0     0
SMALL
abcg2


@<TRIPOS>ATOM
      1 FBI         -6.7680    -0.1530    -0.6460 f          1 8ZD      -0.115000
      2 CBH         -5.5410     0.2590    -0.3120 c3         1 8ZD       0.354300
      3 FBJ         -5.0530     0.9310    -1.3630 f          1 8ZD      -0.115000
      4 FBK         -5.6890     1.1560     0.6760 f          1 8ZD      -0.115000
      5 CBF         -4.6500    -0.8710     0.1010 ca         1 8ZD      -0.166300
      6 CBG         -3.2770    -0.6950     0.0380 ca         1 8ZD      -0.133000
      7 CBE         -5.1890    -2.0510     0.5970 ca         1 8ZD      -0.095000
      8 CBD         -4.3220    -3.0490     1.0130 ca         1 8ZD      -0.092000
      9 CBC         -2.9450    -2.8970     0.9450 ca         1 8ZD      -0.108000
     10 CBB         -2.4060    -1.7040     0.4570 ca         1 8ZD      -0.002000
     11 NBA         -1.0480    -1.4230     0.3410 ns         1 8ZD      -0.163000
     12 CAY          0.0070    -2.0510     0.9570 c          1 8ZD       0.672100
     13 OAZ         -0.0970    -3.1790     1.4210 o          1 8ZD      -0.635100
     14 NAL          1.1700    -1.3390     0.9980 n          1 8ZD      -0.427800
     15 CAI          1.3120     0.0980     0.7260 c6         1 8ZD       0.117700
     16 CAJ          0.4100     0.9780     1.5950 c6         1 8ZD      -0.095400
     17 CAK          0.6920     2.4450     1.3060 c6         1 8ZD       0.181300
     18 CAH          1.2720     0.4900    -0.7520 c6         1 8ZD      -0.095400
     19 CAG          1.4990     1.9920    -0.8880 c6         1 8ZD       0.181300
     20 NAF          0.5230     2.7140    -0.1050 n3         1 8ZD      -0.755600
     21 CAD          0.3580     4.1150    -0.4620 c3         1 8ZD       0.199500
     22 CAE          1.4840     5.0300     0.0270 c3         1 8ZD      -0.124100
     23 CAC         -1.0090     4.6360    -0.0120 c3         1 8ZD      -0.069400
     24 CAB         -2.1770     3.7810    -0.4850 c3         1 8ZD      -0.069400
     25 CAA         -3.5260     4.3150    -0.0260 c3         1 8ZD      -0.091100
     26 CAM          2.3770    -2.0410     1.4090 c3         1 8ZD       0.161300
     27 CAN          3.2150    -2.4860     0.2320 ca         1 8ZD      -0.135300
     28 CAO          2.8420    -3.6530    -0.4330 ca         1 8ZD      -0.081000
     29 CAP          3.5240    -4.1010    -1.5510 ca         1 8ZD      -0.119000
     30 CAQ          4.6210    -3.3860    -2.0130 ca         1 8ZD      -0.091000
     31 CAR          5.0240    -2.2390    -1.3540 ca         1 8ZD      -0.110000
     32 CAS          4.3260    -1.7800    -0.2390 ca         1 8ZD      -0.028000
     33 NAT          4.7610    -0.6090     0.4200 ns         1 8ZD      -0.180000
     34 CAU          4.9920     0.5870    -0.1890 c          1 8ZD       0.602100
     35 OAV          4.8630     0.7550    -1.3850 o          1 8ZD      -0.577100
     36 CAW          5.4050     1.6880     0.7640 c3         1 8ZD      -0.161400
     37 CAX          5.6640     3.0180     0.0820 c3         1 8ZD      -0.077100
     38 H1          -2.8630     0.2340    -0.3400 ha         1 8ZD       0.128000
     39 H2          -6.2580    -2.2040     0.6570 ha         1 8ZD       0.131000
     40 H3          -4.7240    -3.9780     1.3940 ha         1 8ZD       0.120000
     41 H4          -2.3060    -3.7050     1.2620 ha         1 8ZD       0.154000
     42 H5          -0.8530    -0.5700    -0.1540 hn         1 8ZD       0.163000
     43 H6           2.3270     0.3290     1.0580 h1         1 8ZD       0.049700
     44 H7          -0.6520     0.8010     1.4210 hc         1 8ZD       0.057450
     45 H8           0.6030     0.7590     2.6470 hc         1 8ZD       0.057450
     46 H9          -0.0010     3.0540     1.8880 h1         1 8ZD       0.035950
     47 H10          1.7060     2.6960     1.6630 h1         1 8ZD       0.035950
     48 H11          2.0420    -0.0570    -1.3000 hc         1 8ZD       0.057450
     49 H12          0.3200     0.2500    -1.2320 hc         1 8ZD       0.057450
     50 H13          2.5350     2.2280    -0.5850 h1         1 8ZD       0.035950
     51 H14          1.4070     2.2760    -1.9380 h1         1 8ZD       0.035950
     52 H16          0.3660     4.1460    -1.5570 h1         1 8ZD       0.055700
     53 H17          1.3530     6.0410    -0.3620 hc         1 8ZD       0.037033
     54 H18          1.5070     5.0980     1.1160 hc         1 8ZD       0.037033
     55 H19          2.4620     4.6770    -0.3070 hc         1 8ZD       0.037033
     56 H20         -1.0400     4.7290     1.0790 hc         1 8ZD       0.037200
     57 H21         -1.1250     5.6560    -0.3940 hc         1 8ZD       0.037200
     58 H22         -2.1600     3.7180    -1.5780 hc         1 8ZD       0.042200
     59 H23         -2.0410     2.7580    -0.1260 hc         1 8ZD       0.042200
     60 H24         -4.3440     3.6780    -0.3620 hc         1 8ZD       0.032033
     61 H25         -3.5800     4.3680     1.0630 hc         1 8ZD       0.032033
     62 H26         -3.7110     5.3210    -0.4100 hc         1 8ZD       0.032033
     63 H27          2.9320    -1.3930     2.0880 h1         1 8ZD       0.062200
     64 H28          2.0960    -2.9130     1.9930 h1         1 8ZD       0.062200
     65 H29          1.9910    -4.2130    -0.0650 ha         1 8ZD       0.131000
     66 H30          3.2090    -5.0070    -2.0510 ha         1 8ZD       0.119000
     67 H31          5.1730    -3.7310    -2.8770 ha         1 8ZD       0.117000
     68 H32          5.8990    -1.7040    -1.6960 ha         1 8ZD       0.128000
     69 H33          4.9050    -0.6580     1.4150 hn         1 8ZD       0.151000
     70 H34          4.6300     1.7980     1.5290 hc         1 8ZD       0.056200
     71 H35          6.3010     1.3610     1.3010 hc         1 8ZD       0.056200
     72 H36          6.4340     2.9320    -0.6830 hc         1 8ZD       0.044367
     73 H37          4.7650     3.4110    -0.3920 hc         1 8ZD       0.044367
     74 H38          6.0000     3.7500     0.8150 hc         1 8ZD       0.044367
@<TRIPOS>BOND
     1     1     2 1   
     2     2     3 1   
     3     2     4 1   
     4     2     5 1   
     5     5     6 ar  
     6     5     7 ar  
     7     6    10 ar  
     8     6    38 1   
     9     7     8 ar  
    10     7    39 1   
    11     8     9 ar  
    12     8    40 1   
    13     9    10 ar  
    14     9    41 1   
    15    10    11 1   
    16    11    12 1   
    17    11    42 1   
    18    12    13 2   
    19    12    14 1   
    20    14    15 1   
    21    14    26 1   
    22    15    16 1   
    23    15    18 1   
    24    15    43 1   
    25    16    17 1   
    26    16    44 1   
    27    16    45 1   
    28    17    20 1   
    29    17    46 1   
    30    17    47 1   
    31    18    19 1   
    32    18    48 1   
    33    18    49 1   
    34    19    20 1   
    35    19    50 1   
    36    19    51 1   
    37    20    21 1   
    38    21    22 1   
    39    21    23 1   
    40    21    52 1   
    41    22    53 1   
    42    22    54 1   
    43    22    55 1   
    44    23    24 1   
    45    23    56 1   
    46    23    57 1   
    47    24    25 1   
    48    24    58 1   
    49    24    59 1   
    50    25    60 1   
    51    25    61 1   
    52    25    62 1   
    53    26    27 1   
    54    26    63 1   
    55    26    64 1   
    56    27    28 ar  
    57    27    32 ar  
    58    28    29 ar  
    59    28    65 1   
    60    29    30 ar  
    61    29    66 1   
    62    30    31 ar  
    63    30    67 1   
    64    31    32 ar  
    65    31    68 1   
    66    32    33 1   
    67    33    34 1   
    68    33    69 1   
    69    34    35 2   
    70    34    36 1   
    71    36    37 1   
    72    36    70 1   
    73    36    71 1   
    74    37    72 1   
    75    37    73 1   
    76    37    74 1   
@<TRIPOS>SUBSTRUCTURE
     1 8ZD         1 TEMP              0 ****  ****    0 ROOT
