@<TRIPOS>MOLECULE
8ZD
   74    76     1     0     0
SMALL
No Charge or Current Charge


@<TRIPOS>ATOM
      1 FBI         -6.7240    -0.3650    -1.1170 f          1 8ZD      -0.115000
      2 CBH         -5.6820     0.0910    -0.3850 c3         1 8ZD       0.354300
      3 FBJ         -5.0830     1.0520    -1.1260 f          1 8ZD      -0.115000
      4 FBK         -6.2010     0.7010     0.7040 f          1 8ZD      -0.115000
      5 CBF         -4.7130    -1.0310     0.0130 ca         1 8ZD      -0.166300
      6 CBG         -3.3380    -0.7630     0.1920 ca         1 8ZD      -0.133000
      7 CBE         -5.1830    -2.3420     0.2340 ca         1 8ZD      -0.095000
      8 CBD         -4.2930    -3.3620     0.6090 ca         1 8ZD      -0.092000
      9 CBC         -2.9260    -3.0860     0.7760 ca         1 8ZD      -0.108000
     10 CBB         -2.4390    -1.7780     0.5720 ca         1 8ZD      -0.002000
     11 NBA         -1.0780    -1.4070     0.7240 ns         1 8ZD      -0.163000
     12 CAY          0.0490    -2.0840     1.1630 c          1 8ZD       0.672100
     13 OAZ          0.0220    -3.2530     1.5260 o          1 8ZD      -0.635100
     14 NAL          1.2560    -1.3330     1.1680 n          1 8ZD      -0.427800
     15 CAI          1.3540     0.1100     0.7830 c6         1 8ZD       0.117700
     16 CAJ          0.5430     1.0760     1.6870 c6         1 8ZD      -0.095400
     17 CAK          0.7290     2.5400     1.2380 c6         1 8ZD       0.181300
     18 CAH          1.1320     0.3620    -0.7280 c6         1 8ZD      -0.095400
     19 CAG          1.3140     1.8560    -1.0620 c6         1 8ZD       0.181300
     20 NAF          0.4280     2.7030    -0.2160 n3         1 8ZD      -0.755600
     21 CAD          0.3250     4.1140    -0.6850 c3         1 8ZD       0.199500
     22 CAE          1.6360     4.9220    -0.5170 c3         1 8ZD      -0.124100
     23 CAC         -0.8810     4.8780    -0.0690 c3         1 8ZD      -0.069400
     24 CAB         -2.2420     4.1600    -0.2510 c3         1 8ZD      -0.069400
     25 CAA         -3.4300     4.9620     0.3140 c3         1 8ZD      -0.091100
     26 CAM          2.5320    -2.0180     1.4950 c3         1 8ZD       0.161300
     27 CAN          3.2790    -2.4980     0.2470 ca         1 8ZD      -0.135300
     28 CAO          2.8690    -3.7090    -0.3490 ca         1 8ZD      -0.081000
     29 CAP          3.4960    -4.1880    -1.5080 ca         1 8ZD      -0.119000
     30 CAQ          4.5470    -3.4630    -2.0830 ca         1 8ZD      -0.091000
     31 CAR          4.9680    -2.2570    -1.5010 ca         1 8ZD      -0.110000
     32 CAS          4.3390    -1.7570    -0.3390 ca         1 8ZD      -0.028000
     33 NAT          4.7730    -0.5450     0.2690 ns         1 8ZD      -0.180000
     34 CAU          5.4680     0.5440    -0.2400 c          1 8ZD       0.602100
     35 OAV          5.7880     0.6680    -1.4160 o          1 8ZD      -0.577100
     36 CAW          5.8330     1.6070     0.8060 c3         1 8ZD      -0.161400
     37 CAX          4.9780     2.8840     0.6540 c3         1 8ZD      -0.077100
     38 H1          -2.9610     0.2470     0.0400 ha         1 8ZD       0.128000
     39 H2          -6.2390    -2.5770     0.1170 ha         1 8ZD       0.131000
     40 H3          -4.6660    -4.3710     0.7720 ha         1 8ZD       0.120000
     41 H4          -2.2660    -3.8990     1.0630 ha         1 8ZD       0.154000
     42 H5          -0.8920    -0.4500     0.4600 hn         1 8ZD       0.163000
     43 H6           2.3980     0.4040     0.9580 h1         1 8ZD       0.049700
     44 H7          -0.5300     0.8550     1.6690 hc         1 8ZD       0.057450
     45 H8           0.8640     0.9680     2.7310 hc         1 8ZD       0.057450
     46 H9           0.0680     3.1670     1.8520 h1         1 8ZD       0.035950
     47 H10          1.7600     2.8540     1.4560 h1         1 8ZD       0.035950
     48 H11          1.8420    -0.2350    -1.3150 hc         1 8ZD       0.057450
     49 H12          0.1290     0.0530    -1.0430 hc         1 8ZD       0.057450
     50 H13          2.3680     2.1300    -0.9180 h1         1 8ZD       0.035950
     51 H14          1.0840     2.0050    -2.1280 h1         1 8ZD       0.035950
     52 H16          0.1250     4.0860    -1.7660 h1         1 8ZD       0.055700
     53 H17          1.5260     5.9210    -0.9550 hc         1 8ZD       0.037033
     54 H18          1.8950     5.0450     0.5410 hc         1 8ZD       0.037033
     55 H19          2.4740     4.4310    -1.0250 hc         1 8ZD       0.037033
     56 H20         -0.7050     5.0610     0.9970 hc         1 8ZD       0.037200
     57 H21         -0.9440     5.8650    -0.5430 hc         1 8ZD       0.037200
     58 H22         -2.4130     3.9700    -1.3170 hc         1 8ZD       0.042200
     59 H23         -2.2130     3.1820     0.2460 hc         1 8ZD       0.042200
     60 H24         -4.3670     4.4120     0.1640 hc         1 8ZD       0.032033
     61 H25         -3.3030     5.1370     1.3890 hc         1 8ZD       0.032033
     62 H26         -3.5170     5.9330    -0.1880 hc         1 8ZD       0.032033
     63 H27          3.1610    -1.3410     2.0860 h1         1 8ZD       0.062200
     64 H28          2.3410    -2.8790     2.1480 h1         1 8ZD       0.062200
     65 H29          2.0540    -4.2830     0.0890 ha         1 8ZD       0.131000
     66 H30          3.1690    -5.1240    -1.9570 ha         1 8ZD       0.119000
     67 H31          5.0410    -3.8370    -2.9770 ha         1 8ZD       0.117000
     68 H32          5.8010    -1.7310    -1.9570 ha         1 8ZD       0.128000
     69 H33          4.5560    -0.4760     1.2540 hn         1 8ZD       0.151000
     70 H34          5.6820     1.2100     1.8180 hc         1 8ZD       0.056200
     71 H35          6.8860     1.8830     0.6730 hc         1 8ZD       0.056200
     72 H36          5.1030     3.3220    -0.3440 hc         1 8ZD       0.044367
     73 H37          3.9170     2.6560     0.8010 hc         1 8ZD       0.044367
     74 H38          5.2730     3.6350     1.3970 hc         1 8ZD       0.044367
@<TRIPOS>BOND
     1     1     2 1   
     2     2     3 1   
     3     2     4 1   
     4     2     5 1   
     5     5     6 ar  
     6     5     7 ar  
     7     6    10 ar  
     8     6    38 1   
     9     7     8 ar  
    10     7    39 1   
    11     8     9 ar  
    12     8    40 1   
    13     9    10 ar  
    14     9    41 1   
    15    10    11 1   
    16    11    12 1   
    17    11    42 1   
    18    12    13 2   
    19    12    14 1   
    20    14    15 1   
    21    14    26 1   
    22    15    16 1   
    23    15    18 1   
    24    15    43 1   
    25    16    17 1   
    26    16    44 1   
    27    16    45 1   
    28    17    20 1   
    29    17    46 1   
    30    17    47 1   
    31    18    19 1   
    32    18    48 1   
    33    18    49 1   
    34    19    20 1   
    35    19    50 1   
    36    19    51 1   
    37    20    21 1   
    38    21    22 1   
    39    21    23 1   
    40    21    52 1   
    41    22    53 1   
    42    22    54 1   
    43    22    55 1   
    44    23    24 1   
    45    23    56 1   
    46    23    57 1   
    47    24    25 1   
    48    24    58 1   
    49    24    59 1   
    50    25    60 1   
    51    25    61 1   
    52    25    62 1   
    53    26    27 1   
    54    26    63 1   
    55    26    64 1   
    56    27    28 ar  
    57    27    32 ar  
    58    28    29 ar  
    59    28    65 1   
    60    29    30 ar  
    61    29    66 1   
    62    30    31 ar  
    63    30    67 1   
    64    31    32 ar  
    65    31    68 1   
    66    32    33 1   
    67    33    34 1   
    68    33    69 1   
    69    34    35 2   
    70    34    36 1   
    71    36    37 1   
    72    36    70 1   
    73    36    71 1   
    74    37    72 1   
    75    37    73 1   
    76    37    74 1   
@<TRIPOS>SUBSTRUCTURE
     1 8ZD         1 TEMP              0 ****  ****    0 ROOT
