@<TRIPOS>MOLECULE
8ZE
   22    23     1     0     0
SMALL
bcc


@<TRIPOS>ATOM
      1 O1          -3.5630    -1.1950    -0.5400 oh         1 8ZE      -0.591800
      2 C2          -3.2200    -0.1980     0.3960 c3         1 8ZE       0.190700
      3 C3          -1.7700     0.1630     0.2370 ca         1 8ZE      -0.088300
      4 C4          -1.3670     1.4920     0.1770 ca         1 8ZE      -0.120000
      5 C5          -0.0240     1.8230     0.0770 ca         1 8ZE      -0.129000
      6 C6           0.9410     0.8280     0.0140 ca         1 8ZE       0.060100
      7 O7           2.2440     1.1870    -0.0810 os         1 8ZE      -0.306900
      8 C8           3.1590     0.1410     0.2090 c6         1 8ZE       0.094400
      9 C9           2.7290    -1.1330    -0.4760 c6         1 8ZE       0.095400
     10 O10          1.4430    -1.5250    -0.0210 os         1 8ZE      -0.306900
     11 C11          0.5440    -0.5140     0.0500 ca         1 8ZE       0.052100
     12 C12         -0.8010    -0.8330     0.1620 ca         1 8ZE      -0.099000
     13 H1          -4.4350    -1.5290    -0.3110 ho         1 8ZE       0.403000
     14 H2          -3.8290     0.7060     0.2680 h1         1 8ZE       0.024700
     15 H3          -3.3930    -0.5460     1.4220 h1         1 8ZE       0.024700
     16 H4          -2.1050     2.2840     0.2160 ha         1 8ZE       0.133000
     17 H5           0.2860     2.8600     0.0380 ha         1 8ZE       0.145000
     18 H6           4.1360     0.4570    -0.1550 h1         1 8ZE       0.066200
     19 H7           3.2270    -0.0110     1.2910 h1         1 8ZE       0.066200
     20 H8           2.7190    -0.9970    -1.5630 h1         1 8ZE       0.067200
     21 H9           3.4170    -1.9440    -0.2380 h1         1 8ZE       0.067200
     22 H10         -1.0810    -1.8800     0.1950 ha         1 8ZE       0.154000
@<TRIPOS>BOND
     1     1     2 1   
     2     1    13 1   
     3     2     3 1   
     4     2    14 1   
     5     2    15 1   
     6     3     4 ar  
     7     3    12 ar  
     8     4     5 ar  
     9     4    16 1   
    10     5     6 ar  
    11     5    17 1   
    12     6     7 1   
    13     6    11 ar  
    14     7     8 1   
    15     8     9 1   
    16     8    18 1   
    17     8    19 1   
    18     9    10 1   
    19     9    20 1   
    20     9    21 1   
    21    10    11 1   
    22    11    12 ar  
    23    12    22 1   
@<TRIPOS>SUBSTRUCTURE
     1 8ZE         1 TEMP              0 ****  ****    0 ROOT
