@<TRIPOS>MOLECULE
8ZE
   22    23     1     0     0
SMALL
No Charge or Current Charge


@<TRIPOS>ATOM
      1 O1          -3.8280    -0.6610    -0.7830 oh         1 8ZE      -0.654000
      2 C2          -3.2450    -0.3060     0.4750 c3         1 8ZE       0.213900
      3 C3          -1.7850     0.0860     0.2890 ca         1 8ZE      -0.088300
      4 C4          -1.4270     1.4380     0.1090 ca         1 8ZE      -0.102000
      5 C5          -0.0790     1.8030    -0.0550 ca         1 8ZE      -0.111000
      6 C6           0.9220     0.8180    -0.0380 ca         1 8ZE       0.060100
      7 O7           2.2440     1.1920    -0.1780 os         1 8ZE      -0.330100
      8 C8           3.2510     0.2130     0.1600 c6         1 8ZE       0.117600
      9 C9           2.8440    -1.1710    -0.3890 c6         1 8ZE       0.118600
     10 O10          1.5350    -1.5310     0.1060 os         1 8ZE      -0.330100
     11 C11          0.5670    -0.5450     0.1200 ca         1 8ZE       0.052100
     12 C12         -0.7800    -0.9040     0.2940 ca         1 8ZE      -0.081000
     13 H1          -4.7640    -0.8990    -0.6030 ho         1 8ZE       0.442000
     14 H2          -3.7920     0.5330     0.9250 h1         1 8ZE       0.024700
     15 H3          -3.3060    -1.1510     1.1750 h1         1 8ZE       0.024700
     16 H4          -2.1960     2.2080     0.0980 ha         1 8ZE       0.115000
     17 H5           0.1920     2.8480    -0.1850 ha         1 8ZE       0.127000
     18 H6           4.2190     0.5270    -0.2550 h1         1 8ZE       0.066200
     19 H7           3.3450     0.1610     1.2540 h1         1 8ZE       0.066200
     20 H8           2.8140    -1.1360    -1.4870 h1         1 8ZE       0.067200
     21 H9           3.5710    -1.9380    -0.0880 h1         1 8ZE       0.067200
     22 H10         -1.0440    -1.9510     0.4210 ha         1 8ZE       0.136000
@<TRIPOS>BOND
     1     1     2 1   
     2     1    13 1   
     3     2     3 1   
     4     2    14 1   
     5     2    15 1   
     6     3     4 ar  
     7     3    12 ar  
     8     4     5 ar  
     9     4    16 1   
    10     5     6 ar  
    11     5    17 1   
    12     6     7 1   
    13     6    11 ar  
    14     7     8 1   
    15     8     9 1   
    16     8    18 1   
    17     8    19 1   
    18     9    10 1   
    19     9    20 1   
    20     9    21 1   
    21    10    11 1   
    22    11    12 ar  
    23    12    22 1   
@<TRIPOS>SUBSTRUCTURE
     1 8ZE         1 TEMP              0 ****  ****    0 ROOT
