@<TRIPOS>MOLECULE
8ZF
   62    66     1     0     0
SMALL
abcg2


@<TRIPOS>ATOM
      1 CBE        -22.0170   -33.4590    16.1780 c6         1 8ZF       0.135300
      2 CBF        -22.8680   -33.7420    17.4190 c6         1 8ZF       0.154100
      3 OBG        -23.1420   -32.5530    18.1190 os         1 8ZF      -0.436000
      4 CBH        -23.9600   -31.6770    17.3670 c6         1 8ZF       0.154100
      5 CBI        -23.7580   -31.8460    15.8610 c6         1 8ZF       0.135300
      6 NBD        -22.3660   -32.1580    15.6200 n3         1 8ZF      -0.732600
      7 CBC        -21.9650   -32.0270    14.2380 c3         1 8ZF       0.230000
      8 CBA        -20.4810   -32.0310    14.1050 cc         1 8ZF      -0.066300
      9 NAZ        -19.7090   -31.1970    14.8630 na         1 8ZF      -0.303400
     10 CBB        -19.6790   -32.7590    13.2760 cd         1 8ZF      -0.224200
     11 CAY        -18.3240   -32.3610    13.5320 ca         1 8ZF      -0.168800
     12 CAX        -18.3990   -31.3700    14.5470 ca         1 8ZF       0.392500
     13 NAW        -17.4030   -30.6990    15.1010 nb         1 8ZF      -0.698000
     14 CAV        -16.2060   -31.0200    14.6390 ca         1 8ZF       0.400900
     15 CAR        -15.9720   -31.9840    13.6650 ca         1 8ZF      -0.253300
     16 CAN        -14.5850   -32.3650    13.2700 c6         1 8ZF       0.182300
     17 CAQ        -17.0310   -32.6720    13.0750 ca         1 8ZF       0.092000
     18 NAO        -16.7360   -33.6100    12.0880 n          1 8ZF      -0.217400
     19 CAS        -17.7390   -34.5620    11.6170 c3         1 8ZF       0.111000
     20 CAT        -18.5500   -34.0730    10.4260 c3         1 8ZF      -0.118100
     21 CAP        -15.5610   -33.5510    11.3610 c          1 8ZF       0.627000
     22 OAU        -15.4110   -34.1810    10.3320 o          1 8ZF      -0.555000
     23 NAM        -14.5870   -32.7340    11.8630 n          1 8ZF      -0.236400
     24 CAD        -13.4570   -32.4910    11.0660 ca         1 8ZF      -0.043000
     25 CAE        -13.5640   -31.6940     9.9380 ca         1 8ZF       0.124500
     26 FAL        -14.7600   -31.1910     9.6130 f          1 8ZF      -0.154500
     27 CAC        -12.2160   -33.0140    11.3860 ca         1 8ZF       0.124500
     28 FAK        -12.0990   -33.8000    12.4630 f          1 8ZF      -0.154500
     29 CAB        -11.0870   -32.7410    10.6210 ca         1 8ZF       0.134100
     30 OAI         -9.9400   -33.2990    11.0340 os         1 8ZF      -0.320100
     31 CAJ         -8.7750   -33.1020    10.2560 c3         1 8ZF       0.147900
     32 CAA        -11.2240   -31.9380     9.4920 ca         1 8ZF      -0.246000
     33 CAF        -12.4650   -31.4120     9.1360 ca         1 8ZF       0.134100
     34 OAG        -12.6900   -30.6330     8.0680 os         1 8ZF      -0.320100
     35 CAH        -11.5920   -30.2750     7.2500 c3         1 8ZF       0.147900
     36 H1         -22.1800   -34.2750    15.4560 h1         1 8ZF       0.042700
     37 H2         -20.9540   -33.4690    16.4320 h1         1 8ZF       0.042700
     38 H3         -23.7970   -34.2520    17.1330 h1         1 8ZF       0.046950
     39 H4         -22.3350   -34.4100    18.0950 h1         1 8ZF       0.046950
     40 H5         -23.6890   -30.6630    17.6660 h1         1 8ZF       0.046950
     41 H6         -25.0200   -31.8250    17.6110 h1         1 8ZF       0.046950
     42 H7         -24.0130   -30.9080    15.3650 h1         1 8ZF       0.042700
     43 H8         -24.4380   -32.6090    15.4500 h1         1 8ZF       0.042700
     44 H10        -22.3560   -31.0770    13.8560 h1         1 8ZF       0.048700
     45 H11        -22.3740   -32.8200    13.5920 h1         1 8ZF       0.048700
     46 H12        -20.0550   -30.5830    15.5830 hn         1 8ZF       0.374000
     47 H13        -20.0520   -33.4910    12.5810 ha         1 8ZF       0.205000
     48 H14        -15.3590   -30.4940    15.0690 h4         1 8ZF       0.019100
     49 H15        -14.2210   -33.1930    13.8880 h1         1 8ZF       0.058200
     50 H16        -13.9000   -31.5290    13.4090 h1         1 8ZF       0.058200
     51 H17        -18.3810   -34.7980    12.4620 h1         1 8ZF       0.059700
     52 H18        -17.2280   -35.4890    11.3640 h1         1 8ZF       0.059700
     53 H19        -19.3570   -34.7750    10.2170 hc         1 8ZF       0.047700
     54 H20        -18.9960   -33.0960    10.6110 hc         1 8ZF       0.047700
     55 H21        -17.9330   -33.9970     9.5330 hc         1 8ZF       0.047700
     56 H22         -7.9820   -33.6590    10.7460 h1         1 8ZF       0.044033
     57 H23         -8.8960   -33.4810     9.2380 h1         1 8ZF       0.044033
     58 H24         -8.4890   -32.0480    10.2100 h1         1 8ZF       0.044033
     59 H25        -10.3580   -31.7190     8.8840 ha         1 8ZF       0.127000
     60 H26        -11.9910   -29.6400     6.4630 h1         1 8ZF       0.044033
     61 H27        -10.8360   -29.7150     7.8060 h1         1 8ZF       0.044033
     62 H28        -11.1230   -31.1490     6.7930 h1         1 8ZF       0.044033
@<TRIPOS>BOND
     1     1     2 1   
     2     1     6 1   
     3     1    36 1   
     4     1    37 1   
     5     2     3 1   
     6     2    38 1   
     7     2    39 1   
     8     3     4 1   
     9     4     5 1   
    10     4    40 1   
    11     4    41 1   
    12     5     6 1   
    13     5    42 1   
    14     5    43 1   
    15     6     7 1   
    16     7     8 1   
    17     7    44 1   
    18     7    45 1   
    19     8     9 1   
    20     8    10 2   
    21     9    12 1   
    22     9    46 1   
    23    10    11 1   
    24    10    47 1   
    25    11    12 ar  
    26    11    17 ar  
    27    12    13 ar  
    28    13    14 ar  
    29    14    15 ar  
    30    14    48 1   
    31    15    16 1   
    32    15    17 ar  
    33    16    23 1   
    34    16    49 1   
    35    16    50 1   
    36    17    18 1   
    37    18    19 1   
    38    18    21 1   
    39    19    20 1   
    40    19    51 1   
    41    19    52 1   
    42    20    53 1   
    43    20    54 1   
    44    20    55 1   
    45    21    22 2   
    46    21    23 1   
    47    23    24 1   
    48    24    25 ar  
    49    24    27 ar  
    50    25    26 1   
    51    25    33 ar  
    52    27    28 1   
    53    27    29 ar  
    54    29    30 1   
    55    29    32 ar  
    56    30    31 1   
    57    31    56 1   
    58    31    57 1   
    59    31    58 1   
    60    32    33 ar  
    61    32    59 1   
    62    33    34 1   
    63    34    35 1   
    64    35    60 1   
    65    35    61 1   
    66    35    62 1   
@<TRIPOS>SUBSTRUCTURE
     1 8ZF         1 TEMP              0 ****  ****    0 ROOT
