@<TRIPOS>MOLECULE
8ZF
   62    66     1     0     0
SMALL
No Charge or Current Charge


@<TRIPOS>ATOM
      1 CBE        -22.1790   -33.3970    16.4040 c6         1 8ZF       0.135300
      2 CBF        -22.7840   -33.5310    17.8420 c6         1 8ZF       0.154100
      3 OBG        -23.5380   -32.3520    18.2150 os         1 8ZF      -0.436000
      4 CBH        -24.5920   -32.0410    17.2720 c6         1 8ZF       0.154100
      5 CBI        -24.0350   -31.8760    15.8180 c6         1 8ZF       0.135300
      6 NBD        -22.5610   -32.1180    15.7210 n3         1 8ZF      -0.732600
      7 CBC        -22.0440   -32.0060    14.3350 c3         1 8ZF       0.230000
      8 CBA        -20.5340   -31.9940    14.2640 cc         1 8ZF      -0.066300
      9 NAZ        -19.6850   -31.3100    15.1480 na         1 8ZF      -0.303400
     10 CBB        -19.6670   -32.6160    13.3880 cd         1 8ZF      -0.224200
     11 CAY        -18.2830   -32.3190    13.7250 ca         1 8ZF      -0.168800
     12 CAX        -18.3560   -31.4930    14.8330 ca         1 8ZF       0.392500
     13 NAW        -17.2830   -30.9680    15.4410 nb         1 8ZF      -0.698000
     14 CAV        -16.0810   -31.2650    14.9040 ca         1 8ZF       0.400900
     15 CAR        -15.9210   -32.0880    13.7720 ca         1 8ZF      -0.253300
     16 CAN        -14.5320   -32.3420    13.2300 c6         1 8ZF       0.182300
     17 CAQ        -17.0350   -32.7050    13.1740 ca         1 8ZF       0.092000
     18 NAO        -16.8320   -33.4010    11.9210 n          1 8ZF      -0.217400
     19 CAS        -17.8350   -34.3760    11.4310 c3         1 8ZF       0.111000
     20 CAT        -18.7180   -33.8250    10.2880 c3         1 8ZF      -0.118100
     21 CAP        -15.6070   -33.3240    11.2060 c          1 8ZF       0.627000
     22 OAU        -15.4690   -33.8720    10.1170 o          1 8ZF      -0.555000
     23 NAM        -14.5330   -32.6030    11.7800 n          1 8ZF      -0.236400
     24 CAD        -13.3270   -32.2850    11.0420 ca         1 8ZF      -0.043000
     25 CAE        -13.4190   -31.6440     9.7840 ca         1 8ZF       0.124500
     26 FAL        -14.6080   -31.1310     9.3800 f          1 8ZF      -0.154500
     27 CAC        -12.0820   -32.8570    11.4030 ca         1 8ZF       0.124500
     28 FAK        -11.9760   -33.5970    12.5330 f          1 8ZF      -0.154500
     29 CAB        -10.9360   -32.6830    10.5960 ca         1 8ZF       0.134100
     30 OAI         -9.7420   -33.2400    11.0230 os         1 8ZF      -0.320100
     31 CAJ         -8.5210   -33.1280    10.2720 c3         1 8ZF       0.147900
     32 CAA        -11.0340   -31.9720     9.3820 ca         1 8ZF      -0.246000
     33 CAF        -12.2820   -31.4600     8.9680 ca         1 8ZF       0.134100
     34 OAG        -12.4340   -30.7780     7.7730 os         1 8ZF      -0.320100
     35 CAH        -11.3390   -30.5400     6.8700 c3         1 8ZF       0.147900
     36 H1         -22.5160   -34.2590    15.8090 h1         1 8ZF       0.042700
     37 H2         -21.0850   -33.4790    16.4800 h1         1 8ZF       0.042700
     38 H3         -23.4440   -34.4090    17.8860 h1         1 8ZF       0.046950
     39 H4         -21.9760   -33.6810    18.5720 h1         1 8ZF       0.046950
     40 H5         -25.0880   -31.1120    17.5880 h1         1 8ZF       0.046950
     41 H6         -25.3420   -32.8450    17.2920 h1         1 8ZF       0.046950
     42 H7         -24.2750   -30.8620    15.4640 h1         1 8ZF       0.042700
     43 H8         -24.5770   -32.5730    15.1610 h1         1 8ZF       0.042700
     44 H10        -22.4050   -31.0750    13.8750 h1         1 8ZF       0.048700
     45 H11        -22.4210   -32.8350    13.7200 h1         1 8ZF       0.048700
     46 H12        -20.0010   -30.7660    15.9380 hn         1 8ZF       0.374000
     47 H13        -20.0250   -33.2480    12.5840 ha         1 8ZF       0.205000
     48 H14        -15.2150   -30.8140    15.3890 h4         1 8ZF       0.019100
     49 H15        -14.1090   -33.2110    13.7530 h1         1 8ZF       0.058200
     50 H16        -13.8870   -31.4770    13.4420 h1         1 8ZF       0.058200
     51 H17        -18.4600   -34.7010    12.2700 h1         1 8ZF       0.059700
     52 H18        -17.3220   -35.2800    11.0780 h1         1 8ZF       0.059700
     53 H19        -19.5310   -34.5240    10.0630 hc         1 8ZF       0.047700
     54 H20        -19.1520   -32.8530    10.5480 hc         1 8ZF       0.047700
     55 H21        -18.1250   -33.6890     9.3760 hc         1 8ZF       0.047700
     56 H22         -7.7050   -33.6410    10.7950 h1         1 8ZF       0.044033
     57 H23         -8.6290   -33.5860     9.2800 h1         1 8ZF       0.044033
     58 H24         -8.2350   -32.0760    10.1460 h1         1 8ZF       0.044033
     59 H25        -10.1570   -31.8350     8.7590 ha         1 8ZF       0.127000
     60 H26        -11.6860   -29.9840     5.9910 h1         1 8ZF       0.044033
     61 H27        -10.5530   -29.9480     7.3570 h1         1 8ZF       0.044033
     62 H28        -10.9060   -31.4870     6.5240 h1         1 8ZF       0.044033
@<TRIPOS>BOND
     1     1     2 1   
     2     1     6 1   
     3     1    36 1   
     4     1    37 1   
     5     2     3 1   
     6     2    38 1   
     7     2    39 1   
     8     3     4 1   
     9     4     5 1   
    10     4    40 1   
    11     4    41 1   
    12     5     6 1   
    13     5    42 1   
    14     5    43 1   
    15     6     7 1   
    16     7     8 1   
    17     7    44 1   
    18     7    45 1   
    19     8     9 1   
    20     8    10 2   
    21     9    12 1   
    22     9    46 1   
    23    10    11 1   
    24    10    47 1   
    25    11    12 ar  
    26    11    17 ar  
    27    12    13 ar  
    28    13    14 ar  
    29    14    15 ar  
    30    14    48 1   
    31    15    16 1   
    32    15    17 ar  
    33    16    23 1   
    34    16    49 1   
    35    16    50 1   
    36    17    18 1   
    37    18    19 1   
    38    18    21 1   
    39    19    20 1   
    40    19    51 1   
    41    19    52 1   
    42    20    53 1   
    43    20    54 1   
    44    20    55 1   
    45    21    22 2   
    46    21    23 1   
    47    23    24 1   
    48    24    25 ar  
    49    24    27 ar  
    50    25    26 1   
    51    25    33 ar  
    52    27    28 1   
    53    27    29 ar  
    54    29    30 1   
    55    29    32 ar  
    56    30    31 1   
    57    31    56 1   
    58    31    57 1   
    59    31    58 1   
    60    32    33 ar  
    61    32    59 1   
    62    33    34 1   
    63    34    35 1   
    64    35    60 1   
    65    35    61 1   
    66    35    62 1   
@<TRIPOS>SUBSTRUCTURE
     1 8ZF         1 TEMP              0 ****  ****    0 ROOT
