@<TRIPOS>MOLECULE
8ZG
   48    51     1     0     0
SMALL
abcg2


@<TRIPOS>ATOM
      1 C13         -2.8490    -0.3010     0.1260 cp         1 8ZG       0.004000
      2 C15         -4.8850    -0.5800     1.5440 ca         1 8ZG      -0.064000
      3 C17         -6.9080     0.6280     1.0790 ca         1 8ZG      -0.074000
      4 C21         -1.8040     0.6480     0.2020 ca         1 8ZG       0.118000
      5 C22         -0.5080     0.3160    -0.0860 ca         1 8ZG      -0.066000
      6 C26          3.3290     1.1540     0.6130 c6         1 8ZG       0.090000
      7 C28          8.2940     1.2020     0.2980 c3         1 8ZG      -0.077100
      8 O01          5.8710     1.7010     1.5270 o          1 8ZG      -0.599100
      9 N03          4.5580     0.8470    -0.0910 n          1 8ZG      -0.421800
     10 C04          4.3340     0.2060    -1.3720 c6         1 8ZG       0.090000
     11 C05          3.4840    -1.0460    -1.2170 c6         1 8ZG       0.190800
     12 N06          2.2400    -0.6990    -0.5510 nh         1 8ZG      -0.774300
     13 C07          1.1380    -1.4640    -0.7820 ca         1 8ZG       0.394900
     14 N08          1.2950    -2.6320    -1.3660 nb         1 8ZG      -0.273000
     15 C09          0.2190    -3.4160    -1.5240 ca         1 8ZG       0.162900
     16 N10         -1.0010    -3.1770    -1.1380 nb         1 8ZG      -0.189000
     17 C11         -1.2210    -1.9430    -0.6180 ca         1 8ZG       0.039000
     18 C12         -2.5390    -1.5730    -0.2850 ca         1 8ZG      -0.078000
     19 C14         -4.2460     0.0360     0.4710 cp         1 8ZG      -0.092000
     20 C16         -6.2060    -0.2870     1.8510 ca         1 8ZG      -0.129000
     21 C18         -6.2960     1.2480    -0.0020 ca         1 8ZG      -0.155000
     22 C19         -4.9820     0.9370    -0.2850 ca         1 8ZG       0.198000
     23 F20         -4.3930     1.5120    -1.3430 f          1 8ZG      -0.170000
     24 C23         -0.1850    -1.0020    -0.4570 ca         1 8ZG      -0.150000
     25 CL24        -2.1600     2.2680     0.6900 cl         1 8ZG      -0.184000
     26 C25          2.4860    -0.0990     0.7590 c6         1 8ZG       0.190800
     27 C27          6.9960     0.7910    -0.3750 c3         1 8ZG      -0.152400
     28 H1          -4.3320    -1.2900     2.1460 ha         1 8ZG       0.122000
     29 H2          -7.9380     0.8630     1.3120 ha         1 8ZG       0.119000
     30 H3           0.2520     1.0830    -0.0540 ha         1 8ZG       0.137000
     31 H4           3.5580     1.5570     1.5950 h1         1 8ZG       0.063450
     32 H5           2.7690     1.9150     0.0570 h1         1 8ZG       0.063450
     33 H6           8.3450     2.2780     0.4590 hc         1 8ZG       0.043367
     34 H7           8.4260     0.7120     1.2620 hc         1 8ZG       0.043367
     35 H8           9.1370     0.9220    -0.3340 hc         1 8ZG       0.043367
     36 H9           3.8260     0.9050    -2.0430 h1         1 8ZG       0.063450
     37 H10          5.2740    -0.0690    -1.8410 h1         1 8ZG       0.063450
     38 H11          3.2730    -1.4530    -2.2030 h1         1 8ZG       0.060950
     39 H12          4.0360    -1.8060    -0.6500 h1         1 8ZG       0.060950
     40 H13          0.4060    -4.3710    -2.0060 h5         1 8ZG       0.048100
     41 H14         -3.3220    -2.3130    -0.3940 ha         1 8ZG       0.143000
     42 H15         -6.6840    -0.7720     2.6910 ha         1 8ZG       0.121000
     43 H16         -6.8320     1.9550    -0.6210 ha         1 8ZG       0.134000
     44 H17          3.0230    -0.8240     1.3840 h1         1 8ZG       0.060950
     45 H18          1.5570     0.1350     1.2700 h1         1 8ZG       0.060950
     46 H19          6.9280     1.2630    -1.3590 hc         1 8ZG       0.055700
     47 H20          7.0020    -0.2860    -0.5630 hc         1 8ZG       0.055700
     48 C02          5.7670     1.1520     0.4390 c          1 8ZG       0.608100
@<TRIPOS>BOND
     1     1     4 ar  
     2     1    18 ar  
     3     1    19 1   
     4     2    19 ar  
     5     2    20 ar  
     6     2    28 1   
     7     3    20 ar  
     8     3    21 ar  
     9     3    29 1   
    10     4     5 ar  
    11     4    25 1   
    12     5    24 ar  
    13     5    30 1   
    14     6     9 1   
    15     6    26 1   
    16     6    31 1   
    17     6    32 1   
    18     7    27 1   
    19     7    33 1   
    20     7    34 1   
    21     7    35 1   
    22     8    48 2   
    23     9    10 1   
    24     9    48 1   
    25    10    11 1   
    26    10    36 1   
    27    10    37 1   
    28    11    12 1   
    29    11    38 1   
    30    11    39 1   
    31    12    13 1   
    32    12    26 1   
    33    13    14 ar  
    34    13    24 ar  
    35    14    15 ar  
    36    15    16 ar  
    37    15    40 1   
    38    16    17 ar  
    39    17    18 ar  
    40    17    24 ar  
    41    18    41 1   
    42    19    22 ar  
    43    20    42 1   
    44    21    22 ar  
    45    21    43 1   
    46    22    23 1   
    47    26    44 1   
    48    26    45 1   
    49    27    46 1   
    50    27    47 1   
    51    27    48 1   
@<TRIPOS>SUBSTRUCTURE
     1 8ZG         1 TEMP              0 ****  ****    0 ROOT
