@<TRIPOS>MOLECULE
8ZG
   48    51     1     0     0
SMALL
No Charge or Current Charge


@<TRIPOS>ATOM
      1 C13         -2.8420    -0.2680     0.0980 cp         1 8ZG       0.004000
      2 C15         -5.0440    -0.4100     1.3150 ca         1 8ZG      -0.064000
      3 C17         -6.8680     1.1360     0.8480 ca         1 8ZG      -0.074000
      4 C21         -1.6950     0.5220     0.3670 ca         1 8ZG       0.118000
      5 C22         -0.4090     0.0210     0.1150 ca         1 8ZG      -0.066000
      6 C26          3.6090     0.2260     1.2090 c6         1 8ZG       0.090000
      7 C28          8.0910     2.3120    -0.1590 c3         1 8ZG      -0.077100
      8 O01          5.8030     1.8990     1.5240 o          1 8ZG      -0.599100
      9 N03          4.7310     0.3450     0.2220 n          1 8ZG      -0.421800
     10 C04          4.3780    -0.0600    -1.1800 c6         1 8ZG       0.090000
     11 C05          3.4110    -1.2710    -1.3030 c6         1 8ZG       0.190800
     12 N06          2.2400    -1.1310    -0.3990 nh         1 8ZG      -0.774300
     13 C07          1.0420    -1.8310    -0.6680 ca         1 8ZG       0.394900
     14 N08          1.1750    -3.0680    -1.1860 nb         1 8ZG      -0.273000
     15 C09          0.0390    -3.7510    -1.4200 ca         1 8ZG       0.162900
     16 N10         -1.2180    -3.3250    -1.1880 nb         1 8ZG      -0.189000
     17 C11         -1.3680    -2.0850    -0.6770 ca         1 8ZG       0.039000
     18 C12         -2.6520    -1.5710    -0.4180 ca         1 8ZG      -0.078000
     19 C14         -4.2250     0.2290     0.3530 cp         1 8ZG      -0.092000
     20 C16         -6.3520     0.0420     1.5630 ca         1 8ZG      -0.129000
     21 C18         -6.0750     1.7740    -0.1190 ca         1 8ZG      -0.155000
     22 C19         -4.7680     1.3240    -0.3670 ca         1 8ZG       0.198000
     23 F20         -4.0380     1.9400    -1.3250 f          1 8ZG      -0.170000
     24 C23         -0.2360    -1.2820    -0.4000 ca         1 8ZG      -0.150000
     25 Cl24        -1.8320     2.1390     1.0610 cl         1 8ZG      -0.184000
     26 C25          2.6780    -1.0010     1.0130 c6         1 8ZG       0.190800
     27 C27          6.9080     1.4030    -0.5640 c3         1 8ZG      -0.152400
     28 H1          -4.6560    -1.2580     1.8760 ha         1 8ZG       0.122000
     29 H2          -7.8810     1.4840     1.0400 ha         1 8ZG       0.119000
     30 H3           0.4500     0.6540     0.3220 ha         1 8ZG       0.137000
     31 H4           4.0180     0.1860     2.2280 h1         1 8ZG       0.063450
     32 H5           2.9970     1.1370     1.1440 h1         1 8ZG       0.063450
     33 H6           7.7490     3.3370     0.0250 hc         1 8ZG       0.043367
     34 H7           8.5750     1.9370     0.7510 hc         1 8ZG       0.043367
     35 H8           8.8420     2.3410    -0.9590 hc         1 8ZG       0.043367
     36 H9           3.9130     0.8030    -1.6780 h1         1 8ZG       0.063450
     37 H10          5.2860    -0.3080    -1.7460 h1         1 8ZG       0.063450
     38 H11          3.0850    -1.3520    -2.3500 h1         1 8ZG       0.060950
     39 H12          3.9640    -2.1910    -1.0600 h1         1 8ZG       0.060950
     40 H13          0.1470    -4.7510    -1.8350 h5         1 8ZG       0.048100
     41 H14         -3.5220    -2.1870    -0.6290 ha         1 8ZG       0.143000
     42 H15         -6.9670    -0.4570     2.3100 ha         1 8ZG       0.121000
     43 H16         -6.4710     2.6150    -0.6830 ha         1 8ZG       0.134000
     44 H17          3.2200    -1.9080     1.3200 h1         1 8ZG       0.060950
     45 H18          1.8140    -0.9000     1.6860 h1         1 8ZG       0.060950
     46 H19          6.4630     1.7350    -1.5100 hc         1 8ZG       0.055700
     47 H20          7.2500     0.3960    -0.8280 hc         1 8ZG       0.055700
     48 C02          5.7750     1.2660     0.4760 c          1 8ZG       0.608100
@<TRIPOS>BOND
     1     1     4 ar  
     2     1    18 ar  
     3     1    19 1   
     4     2    19 ar  
     5     2    20 ar  
     6     2    28 1   
     7     3    20 ar  
     8     3    21 ar  
     9     3    29 1   
    10     4     5 ar  
    11     4    25 1   
    12     5    24 ar  
    13     5    30 1   
    14     6     9 1   
    15     6    26 1   
    16     6    31 1   
    17     6    32 1   
    18     7    27 1   
    19     7    33 1   
    20     7    34 1   
    21     7    35 1   
    22     8    48 2   
    23     9    10 1   
    24     9    48 1   
    25    10    11 1   
    26    10    36 1   
    27    10    37 1   
    28    11    12 1   
    29    11    38 1   
    30    11    39 1   
    31    12    13 1   
    32    12    26 1   
    33    13    14 ar  
    34    13    24 ar  
    35    14    15 ar  
    36    15    16 ar  
    37    15    40 1   
    38    16    17 ar  
    39    17    18 ar  
    40    17    24 ar  
    41    18    41 1   
    42    19    22 ar  
    43    20    42 1   
    44    21    22 ar  
    45    21    43 1   
    46    22    23 1   
    47    26    44 1   
    48    26    45 1   
    49    27    46 1   
    50    27    47 1   
    51    27    48 1   
@<TRIPOS>SUBSTRUCTURE
     1 8ZG         1 TEMP              0 ****  ****    0 ROOT
