@<TRIPOS>MOLECULE
8ZH
   56    59     1     0     0
SMALL
No Charge or Current Charge


@<TRIPOS>ATOM
      1 CAV          8.2280    -0.8740     1.1230 c6         1 8ZH      -0.130900
      2 CAW          9.2950    -1.9930     1.1110 c6         1 8ZH       0.151800
      3 NAX          9.6700    -2.3470    -0.2790 n7         1 8ZH      -0.846400
      4 CAY          8.5080    -2.7780    -1.0930 c6         1 8ZH       0.151800
      5 CAZ          7.4230    -1.6770    -1.1280 c6         1 8ZH      -0.130900
      6 CAU          6.9820    -1.2890     0.3050 c6         1 8ZH       0.115700
      7 NAT          6.0110    -0.1900     0.2700 ns         1 8ZH      -0.502900
      8 CAR          4.6580    -0.3190     0.0440 c          1 8ZH       0.609700
      9 OAS          4.1460    -1.4160    -0.1300 o          1 8ZH      -0.595100
     10 CAN          3.8470     0.9630     0.0260 ca         1 8ZH      -0.119600
     11 CAM          2.4500     0.8950    -0.1910 ca         1 8ZH      -0.079000
     12 CAO          4.4380     2.2370     0.2130 ca         1 8ZH      -0.116000
     13 CAP          3.6500     3.3990     0.1770 ca         1 8ZH      -0.089000
     14 CAQ          2.2670     3.3090    -0.0410 ca         1 8ZH      -0.150000
     15 CAL          1.6570     2.0570    -0.2150 ca         1 8ZH       0.294000
     16 NAK          0.2810     2.0100    -0.4460 nu         1 8ZH      -0.921900
     17 CAJ         -0.7050     1.1590    -0.0460 cc         1 8ZH       0.737300
     18 SBA         -2.3830     1.4120    -0.4450 ss         1 8ZH      -0.115400
     19 NAI         -0.4160     0.1210     0.7050 nd         1 8ZH      -0.719000
     20 CAH         -1.5790    -0.5780     1.0050 cd         1 8ZH       0.401900
     21 CAG         -2.7210    -0.0330     0.4730 cc         1 8ZH      -0.330600
     22 CAE         -4.0470    -0.6320     0.6780 c          1 8ZH       0.663700
     23 OAF         -4.2290    -1.6430     1.3440 o          1 8ZH      -0.571100
     24 NAD         -5.0650     0.0770     0.0660 ns         1 8ZH      -0.170000
     25 CAC         -6.4540    -0.2080    -0.0090 ca         1 8ZH      -0.042000
     26 CBB         -6.9320    -1.4330    -0.5370 ca         1 8ZH       0.132000
     27 Cl          -5.8400    -2.6480    -1.2070 cl         1 8ZH      -0.184000
     28 CBC         -8.3130    -1.6830    -0.5990 ca         1 8ZH      -0.102000
     29 CBD         -9.2270    -0.7190    -0.1470 ca         1 8ZH      -0.097000
     30 CBE         -8.7600     0.5060     0.3560 ca         1 8ZH      -0.106000
     31 CAB         -7.3780     0.7730     0.4220 ca         1 8ZH      -0.068300
     32 CAA         -6.9000     2.1130     0.9760 c3         1 8ZH      -0.047800
     33 H1           7.9390    -0.6550     2.1600 hc         1 8ZH       0.050200
     34 H2           8.6600     0.0500     0.7150 hc         1 8ZH       0.050200
     35 H3          10.1870    -1.6600     1.6640 h1         1 8ZH       0.056450
     36 H4           8.9010    -2.8830     1.6260 h1         1 8ZH       0.056450
     37 H5          10.0810    -1.5160    -0.7220 hn         1 8ZH       0.403000
     38 H7           8.8370    -3.0060    -2.1190 h1         1 8ZH       0.056450
     39 H8           8.0820    -3.7010    -0.6710 h1         1 8ZH       0.056450
     40 H9           7.8090    -0.7940    -1.6560 hc         1 8ZH       0.050200
     41 H10          6.5590    -2.0340    -1.7040 hc         1 8ZH       0.050200
     42 H11          6.5130    -2.1610     0.7880 h1         1 8ZH       0.078700
     43 H12          6.3560     0.7500     0.4080 hn         1 8ZH       0.312500
     44 H13          1.9770    -0.0680    -0.3530 ha         1 8ZH       0.178000
     45 H14          5.5060     2.3460     0.3830 ha         1 8ZH       0.112000
     46 H15          4.1150     4.3730     0.3170 ha         1 8ZH       0.117000
     47 H16          1.6690     4.2160    -0.0670 ha         1 8ZH       0.112000
     48 H17         -0.1170     2.8740    -0.8040 hn         1 8ZH       0.506000
     49 H18         -1.5240    -1.4720     1.6150 h4         1 8ZH       0.066100
     50 H19         -4.7750     0.9300    -0.3920 hn         1 8ZH       0.159000
     51 H20         -8.6750    -2.6220    -1.0100 ha         1 8ZH       0.132000
     52 H21        -10.2960    -0.9150    -0.1970 ha         1 8ZH       0.119000
     53 H22         -9.4780     1.2500     0.6940 ha         1 8ZH       0.117000
     54 H23         -6.3260     2.6680     0.2240 hc         1 8ZH       0.046033
     55 H24         -7.7370     2.7500     1.2850 hc         1 8ZH       0.046033
     56 H25         -6.2570     1.9700     1.8520 hc         1 8ZH       0.046033
@<TRIPOS>BOND
     1     1     2 1   
     2     1     6 1   
     3     1    33 1   
     4     1    34 1   
     5     2     3 1   
     6     2    35 1   
     7     2    36 1   
     8     3     4 1   
     9     3    37 1   
    10     4     5 1   
    11     4    38 1   
    12     4    39 1   
    13     5     6 1   
    14     5    40 1   
    15     5    41 1   
    16     6     7 1   
    17     6    42 1   
    18     7     8 1   
    19     7    43 1   
    20     8     9 2   
    21     8    10 1   
    22    10    11 ar  
    23    10    12 ar  
    24    11    15 ar  
    25    11    44 1   
    26    12    13 ar  
    27    12    45 1   
    28    13    14 ar  
    29    13    46 1   
    30    14    15 ar  
    31    14    47 1   
    32    15    16 1   
    33    16    17 1   
    34    16    48 1   
    35    17    18 1   
    36    17    19 2   
    37    18    21 1   
    38    19    20 1   
    39    20    21 2   
    40    20    49 1   
    41    21    22 1   
    42    22    23 2   
    43    22    24 1   
    44    24    25 1   
    45    24    50 1   
    46    25    26 ar  
    47    25    31 ar  
    48    26    27 1   
    49    26    28 ar  
    50    28    29 ar  
    51    28    51 1   
    52    29    30 ar  
    53    29    52 1   
    54    30    31 ar  
    55    30    53 1   
    56    31    32 1   
    57    32    54 1   
    58    32    55 1   
    59    32    56 1   
@<TRIPOS>SUBSTRUCTURE
     1 8ZH         1 TEMP              0 ****  ****    0 ROOT
