@<TRIPOS>MOLECULE
8ZH
   56    59     1     0     0
SMALL
abcg2


@<TRIPOS>ATOM
      1 CAV          7.8840    -0.8890     1.4170 c6         1 8ZH      -0.130900
      2 CAW          8.8080    -2.1020     1.5460 c6         1 8ZH       0.151800
      3 NAX          9.2590    -2.6480     0.2780 n7         1 8ZH      -0.846400
      4 CAY          8.1440    -2.9370    -0.6090 c6         1 8ZH       0.151800
      5 CAZ          7.2040    -1.7540    -0.8280 c6         1 8ZH      -0.130900
      6 CAU          6.7020    -1.2200     0.5130 c6         1 8ZH       0.115700
      7 NAT          5.8560    -0.0520     0.3480 ns         1 8ZH      -0.502900
      8 CAR          4.5720    -0.1240    -0.0290 c          1 8ZH       0.609700
      9 OAS          3.9760    -1.1880    -0.1520 o          1 8ZH      -0.595100
     10 CAN          3.8760     1.1770    -0.2980 ca         1 8ZH      -0.119600
     11 CAM          2.4840     1.1640    -0.2590 ca         1 8ZH      -0.079000
     12 CAO          4.5580     2.3430    -0.6310 ca         1 8ZH      -0.116000
     13 CAP          3.8370     3.4960    -0.9120 ca         1 8ZH      -0.089000
     14 CAQ          2.4570     3.4930    -0.8670 ca         1 8ZH      -0.150000
     15 CAL          1.7660     2.3220    -0.5400 ca         1 8ZH       0.294000
     16 NAK          0.3730     2.4000    -0.5400 nu         1 8ZH      -0.921900
     17 CAJ         -0.5330     1.4420    -0.2570 cc         1 8ZH       0.737300
     18 SBA         -2.2270     1.7910    -0.4730 ss         1 8ZH      -0.115400
     19 NAI         -0.2790     0.2390     0.1720 nd         1 8ZH      -0.719000
     20 CAH         -1.4240    -0.4600     0.3560 cd         1 8ZH       0.401900
     21 CAG         -2.5910     0.1810     0.0760 cc         1 8ZH      -0.330600
     22 CAE         -3.9270    -0.4110     0.2070 c          1 8ZH       0.663700
     23 OAF         -4.0670    -1.5650     0.5750 o          1 8ZH      -0.571100
     24 NAD         -4.9810     0.3860    -0.1020 ns         1 8ZH      -0.170000
     25 CAC         -6.3080    -0.0820    -0.0380 ca         1 8ZH      -0.042000
     26 CBB         -6.7900    -0.9760    -0.9910 ca         1 8ZH       0.132000
     27 CL          -5.7540    -1.4980    -2.2720 cl         1 8ZH      -0.184000
     28 CBC         -8.0920    -1.4450    -0.9450 ca         1 8ZH      -0.102000
     29 CBD         -8.9280    -0.9980     0.0660 ca         1 8ZH      -0.097000
     30 CBE         -8.4640    -0.0980     1.0130 ca         1 8ZH      -0.106000
     31 CAB         -7.1530     0.3670     0.9800 ca         1 8ZH      -0.068300
     32 CAA         -6.6520     1.3350     2.0090 c3         1 8ZH      -0.047800
     33 H1           7.5340    -0.5800     2.4050 hc         1 8ZH       0.050200
     34 H2           8.4450    -0.0480     0.9930 hc         1 8ZH       0.050200
     35 H3           9.6790    -1.8400     2.1480 h1         1 8ZH       0.056450
     36 H4           8.2800    -2.8940     2.0880 h1         1 8ZH       0.056450
     37 H5           9.8740    -1.9790    -0.1720 hn         1 8ZH       0.403000
     38 H7           8.5360    -3.2860    -1.5660 h1         1 8ZH       0.056450
     39 H8           7.5780    -3.7720    -0.1810 h1         1 8ZH       0.056450
     40 H9           7.7340    -0.9540    -1.3560 hc         1 8ZH       0.050200
     41 H10          6.3620    -2.0550    -1.4550 hc         1 8ZH       0.050200
     42 H11          6.1040    -1.9980     0.9980 h1         1 8ZH       0.078700
     43 H12          6.2850     0.8500     0.4790 hn         1 8ZH       0.312500
     44 H13          1.9680     0.2500    -0.0110 ha         1 8ZH       0.178000
     45 H14          5.6370     2.3710    -0.7050 ha         1 8ZH       0.112000
     46 H15          4.3570     4.4050    -1.1820 ha         1 8ZH       0.117000
     47 H16          1.9090     4.3990    -1.0960 ha         1 8ZH       0.112000
     48 H17          0.0020     3.2940    -0.8230 hn         1 8ZH       0.506000
     49 H18         -1.3700    -1.4780     0.7140 h4         1 8ZH       0.066100
     50 H19         -4.8440     1.3590    -0.3290 hn         1 8ZH       0.159000
     51 H20         -8.4490    -2.1420    -1.6910 ha         1 8ZH       0.132000
     52 H21         -9.9480    -1.3550     0.1120 ha         1 8ZH       0.119000
     53 H22         -9.1270     0.2460     1.7970 ha         1 8ZH       0.117000
     54 H23         -6.4320     2.3090     1.5680 hc         1 8ZH       0.046033
     55 H24         -7.3960     1.4880     2.7880 hc         1 8ZH       0.046033
     56 H25         -5.7340     0.9830     2.4810 hc         1 8ZH       0.046033
@<TRIPOS>BOND
     1     1     2 1   
     2     1     6 1   
     3     1    33 1   
     4     1    34 1   
     5     2     3 1   
     6     2    35 1   
     7     2    36 1   
     8     3     4 1   
     9     3    37 1   
    10     4     5 1   
    11     4    38 1   
    12     4    39 1   
    13     5     6 1   
    14     5    40 1   
    15     5    41 1   
    16     6     7 1   
    17     6    42 1   
    18     7     8 1   
    19     7    43 1   
    20     8     9 2   
    21     8    10 1   
    22    10    11 ar  
    23    10    12 ar  
    24    11    15 ar  
    25    11    44 1   
    26    12    13 ar  
    27    12    45 1   
    28    13    14 ar  
    29    13    46 1   
    30    14    15 ar  
    31    14    47 1   
    32    15    16 1   
    33    16    17 1   
    34    16    48 1   
    35    17    18 1   
    36    17    19 2   
    37    18    21 1   
    38    19    20 1   
    39    20    21 2   
    40    20    49 1   
    41    21    22 1   
    42    22    23 2   
    43    22    24 1   
    44    24    25 1   
    45    24    50 1   
    46    25    26 ar  
    47    25    31 ar  
    48    26    27 1   
    49    26    28 ar  
    50    28    29 ar  
    51    28    51 1   
    52    29    30 ar  
    53    29    52 1   
    54    30    31 ar  
    55    30    53 1   
    56    31    32 1   
    57    32    54 1   
    58    32    55 1   
    59    32    56 1   
@<TRIPOS>SUBSTRUCTURE
     1 8ZH         1 TEMP              0 ****  ****    0 ROOT
