@<TRIPOS>MOLECULE
8ZI
   86    88     1     0     0
SMALL
abcg2


@<TRIPOS>ATOM
      1 N1          10.5980   -25.2580    23.0210 n          1 8ZI      -0.390800
      2 N3           9.1160   -27.5210    20.6710 ns         1 8ZI      -0.513900
      3 C4          11.6890   -26.8590    24.3490 cx         1 8ZI      -0.122700
      4 C5          12.8440   -27.1170    23.4220 cx         1 8ZI      -0.072000
      5 C6          13.6340   -25.9910    22.7990 c3         1 8ZI      -0.067100
      6 C7          13.7000   -28.3130    23.7700 c3         1 8ZI      -0.067100
      7 C8          11.0750   -25.4850    24.3860 c5         1 8ZI       0.133000
      8 C10         10.0150   -22.8860    23.4010 c3         1 8ZI       0.046700
      9 C17         12.5920   -19.0750    22.3730 c3         1 8ZI      -0.036000
     10 C20         13.2720   -18.2420    21.2830 c3         1 8ZI      -0.087433
     11 C21          7.8700   -28.0650    20.1740 c3         1 8ZI       0.073700
     12 C22          8.0370   -29.5910    19.9640 c3         1 8ZI       0.072300
     13 C24          7.4440   -27.3450    18.8960 c3         1 8ZI      -0.077400
     14 C26          6.2160   -25.4140    20.0880 c5         1 8ZI      -0.090400
     15 C28          6.8610   -25.1450    17.8000 c          1 8ZI       0.564000
     16 O1           8.3980   -26.9510    22.7470 o          1 8ZI      -0.592100
     17 C1           9.2670   -26.9740    21.8930 c          1 8ZI       0.597100
     18 C2          10.6670   -26.4350    22.1750 c5         1 8ZI       0.057700
     19 C3          11.4430   -27.4480    22.9900 cx         1 8ZI      -0.137700
     20 C9          10.0490   -24.1370    22.5230 c          1 8ZI       0.593100
     21 C11          8.5870   -22.4790    23.8500 c3         1 8ZI      -0.041000
     22 C12          7.6810   -22.0510    22.6950 c3         1 8ZI      -0.089433
     23 C14          8.7190   -21.3140    24.8330 c3         1 8ZI      -0.089433
     24 N2          10.6930   -21.8370    22.6740 ns         1 8ZI      -0.493900
     25 C16         12.5720   -20.5370    21.8740 c3         1 8ZI      -0.152400
     26 C18         13.3890   -18.9380    23.6700 c3         1 8ZI      -0.087433
     27 C19         11.1720   -18.5530    22.5840 c3         1 8ZI      -0.087433
     28 O2          12.6850   -22.0770    23.7130 o          1 8ZI      -0.614100
     29 O3           9.6320   -24.0970    21.3710 o          1 8ZI      -0.629100
     30 C23          6.6790   -30.2300    19.6930 c          1 8ZI       0.612100
     31 N4           6.0150   -30.6310    20.7830 nt         1 8ZI      -0.590000
     32 O4           6.2370   -30.3140    18.5570 o          1 8ZI      -0.604100
     33 O5           8.5960   -30.2070    21.0910 oh         1 8ZI      -0.660000
     34 C25          7.2840   -25.8460    19.0840 c5         1 8ZI      -0.156700
     35 C27          5.7380   -24.0620    19.5560 c5         1 8ZI       0.101000
     36 N5           5.9790   -24.1870    18.1360 ns         1 8ZI      -0.514900
     37 H1           9.8700   -27.4120    20.0080 hn         1 8ZI       0.317500
     38 H2          11.5970   -27.4630    25.2440 hc         1 8ZI       0.101700
     39 H3          14.4190   -25.6620    23.4820 hc         1 8ZI       0.043367
     40 H4          14.1210   -26.3350    21.8840 hc         1 8ZI       0.043367
     41 H5          13.0410   -25.1140    22.5430 hc         1 8ZI       0.043367
     42 H6          13.1150   -29.1120    24.2270 hc         1 8ZI       0.043367
     43 H7          14.1790   -28.7200    22.8770 hc         1 8ZI       0.043367
     44 H8          14.4890   -28.0350    24.4720 hc         1 8ZI       0.043367
     45 H9          11.7950   -24.7160    24.6730 h1         1 8ZI       0.065700
     46 H10         10.2500   -25.4620    25.1000 h1         1 8ZI       0.065700
     47 H11         10.5830   -23.0520    24.3150 h1         1 8ZI       0.088700
     48 H12          8.5340   -23.9690    25.4420 hc         1 8ZI       0.040367
     49 H13          6.9550   -23.3770    24.9420 hc         1 8ZI       0.040367
     50 H14          7.8140   -24.5290    23.9290 hc         1 8ZI       0.040367
     51 H15         14.2970   -18.5770    21.1110 hc         1 8ZI       0.037256
     52 H16         12.7350   -18.3090    20.3350 hc         1 8ZI       0.037256
     53 H17         13.3090   -17.1890    21.5710 hc         1 8ZI       0.037256
     54 H18          7.1230   -27.9080    20.9540 h1         1 8ZI       0.090700
     55 H19          8.6550   -29.7510    19.0700 h1         1 8ZI       0.064700
     56 H20          6.4970   -27.7640    18.5510 hc         1 8ZI       0.072700
     57 H21          8.1780   -27.5420    18.1090 hc         1 8ZI       0.072700
     58 H22          5.3880   -26.1280    20.0780 hc         1 8ZI       0.061700
     59 H23          6.5840   -25.3470    21.1100 hc         1 8ZI       0.061700
     60 H24         11.1740   -26.1900    21.2360 h1         1 8ZI       0.082700
     61 H25         11.1770   -28.4920    22.8660 hc         1 8ZI       0.096700
     62 H26          6.7140   -21.7400    23.0940 hc         1 8ZI       0.040367
     63 H27          8.0820   -21.1980    22.1430 hc         1 8ZI       0.040367
     64 H28          7.5000   -22.8580    21.9870 hc         1 8ZI       0.040367
     65 H29          9.3430   -21.5830    25.6880 hc         1 8ZI       0.040367
     66 H30          9.1530   -20.4310    24.3620 hc         1 8ZI       0.040367
     67 H31          7.7350   -21.0340    25.2150 hc         1 8ZI       0.040367
     68 H32         10.2310   -21.4620    21.8610 hn         1 8ZI       0.324500
     69 H33         12.0220   -20.5690    20.9300 hc         1 8ZI       0.062700
     70 H34         13.5990   -20.8430    21.6570 hc         1 8ZI       0.062700
     71 H35         12.9120   -19.4550    24.5020 hc         1 8ZI       0.037256
     72 H36         14.3990   -19.3370    23.5600 hc         1 8ZI       0.037256
     73 H37         13.4750   -17.8850    23.9450 hc         1 8ZI       0.037256
     74 H38         10.6570   -19.0790    23.3880 hc         1 8ZI       0.037256
     75 H39         11.1930   -17.4940    22.8490 hc         1 8ZI       0.037256
     76 H40         10.5700   -18.6550    21.6770 hc         1 8ZI       0.037256
     77 H41          5.1100   -31.0650    20.6930 hn         1 8ZI       0.323000
     78 H42          6.4340   -30.6040    21.6970 hn         1 8ZI       0.323000
     79 H43          9.4220   -29.7580    21.3060 ho         1 8ZI       0.458000
     80 H44          8.2470   -25.4030    19.3670 hc         1 8ZI       0.090700
     81 H45          6.3120   -23.2340    19.9840 h1         1 8ZI       0.043200
     82 H46          4.6840   -23.8790    19.7630 h1         1 8ZI       0.043200
     83 H47          5.6450   -23.5120    17.4650 hn         1 8ZI       0.325500
     84 O6           7.2580   -25.3960    16.6750 o          1 8ZI      -0.556000
     85 C13          7.9430   -23.6610    24.5760 c3         1 8ZI      -0.089433
     86 C15         12.0040   -21.5530    22.8410 c          1 8ZI       0.604100
@<TRIPOS>BOND
     1     1     7 1   
     2     1    18 1   
     3     1    20 1   
     4     2    11 1   
     5     2    17 1   
     6     2    37 1   
     7     3     4 1   
     8     3     7 1   
     9     3    19 1   
    10     3    38 1   
    11     4     5 1   
    12     4     6 1   
    13     4    19 1   
    14     5    39 1   
    15     5    40 1   
    16     5    41 1   
    17     6    42 1   
    18     6    43 1   
    19     6    44 1   
    20     7    45 1   
    21     7    46 1   
    22     8    20 1   
    23     8    21 1   
    24     8    24 1   
    25     8    47 1   
    26     9    10 1   
    27     9    25 1   
    28     9    26 1   
    29     9    27 1   
    30    10    51 1   
    31    10    52 1   
    32    10    53 1   
    33    11    12 1   
    34    11    13 1   
    35    11    54 1   
    36    12    30 1   
    37    12    33 1   
    38    12    55 1   
    39    13    34 1   
    40    13    56 1   
    41    13    57 1   
    42    14    34 1   
    43    14    35 1   
    44    14    58 1   
    45    14    59 1   
    46    15    34 1   
    47    15    36 1   
    48    15    84 2   
    49    16    17 2   
    50    17    18 1   
    51    18    19 1   
    52    18    60 1   
    53    19    61 1   
    54    20    29 2   
    55    21    22 1   
    56    21    23 1   
    57    21    85 1   
    58    22    62 1   
    59    22    63 1   
    60    22    64 1   
    61    23    65 1   
    62    23    66 1   
    63    23    67 1   
    64    24    68 1   
    65    24    86 1   
    66    25    69 1   
    67    25    70 1   
    68    25    86 1   
    69    26    71 1   
    70    26    72 1   
    71    26    73 1   
    72    27    74 1   
    73    27    75 1   
    74    27    76 1   
    75    28    86 2   
    76    30    31 1   
    77    30    32 2   
    78    31    77 1   
    79    31    78 1   
    80    33    79 1   
    81    34    80 1   
    82    35    36 1   
    83    35    81 1   
    84    35    82 1   
    85    36    83 1   
    86    48    85 1   
    87    49    85 1   
    88    50    85 1   
@<TRIPOS>SUBSTRUCTURE
     1 8ZI         1 TEMP              0 ****  ****    0 ROOT
