@<TRIPOS>MOLECULE
8ZI
   86    88     1     0     0
SMALL
No Charge or Current Charge


@<TRIPOS>ATOM
      1 N1          10.5690   -25.3610    23.1530 n          1 8ZI      -0.390800
      2 N3           8.9700   -27.8870    20.9820 ns         1 8ZI      -0.513900
      3 C4          11.8060   -26.9520    24.4280 cx         1 8ZI      -0.122700
      4 C5          12.7460   -27.4750    23.3500 cx         1 8ZI      -0.072000
      5 C6          13.5520   -26.5400    22.4310 c3         1 8ZI      -0.067100
      6 C7          13.5820   -28.7130    23.6720 c3         1 8ZI      -0.067100
      7 C8          11.4210   -25.4680    24.3650 c5         1 8ZI       0.133000
      8 C10         10.1950   -22.8290    23.4310 c3         1 8ZI       0.046700
      9 C17         12.2810   -18.6020    22.3870 c3         1 8ZI      -0.036000
     10 C20         12.3480   -17.4720    21.3260 c3         1 8ZI      -0.087433
     11 C21          7.7340   -28.3010    20.2920 c3         1 8ZI       0.073700
     12 C22          7.6400   -29.8530    20.1900 c3         1 8ZI       0.072300
     13 C24          7.6360   -27.5910    18.9130 c3         1 8ZI      -0.077400
     14 C26          6.5750   -25.3280    19.7350 c5         1 8ZI      -0.090400
     15 C28          7.6440   -25.3650    17.5810 c          1 8ZI       0.564000
     16 O1           8.0110   -26.7410    22.7230 o          1 8ZI      -0.592100
     17 C1           9.0080   -27.0500    22.0830 c          1 8ZI       0.597100
     18 C2          10.4830   -26.6240    22.3590 c5         1 8ZI       0.057700
     19 C3          11.2400   -27.6520    23.2220 cx         1 8ZI      -0.137700
     20 C9          10.2890   -24.1180    22.5430 c          1 8ZI       0.593100
     21 C11          8.7790   -22.5970    24.0840 c3         1 8ZI      -0.041000
     22 C12          7.6590   -22.5890    23.0050 c3         1 8ZI      -0.089433
     23 C14          8.7550   -21.2330    24.8330 c3         1 8ZI      -0.089433
     24 N2          10.6220   -21.6580    22.6280 ns         1 8ZI      -0.493900
     25 C16         12.1110   -19.9680    21.6460 c3         1 8ZI      -0.152400
     26 C18         13.5920   -18.5780    23.2180 c3         1 8ZI      -0.087433
     27 C19         11.0750   -18.3370    23.3260 c3         1 8ZI      -0.087433
     28 O2          12.8280   -21.7200    23.1720 o          1 8ZI      -0.614100
     29 O3          10.0690   -24.0720    21.3350 o          1 8ZI      -0.629100
     30 C23          6.2780   -30.3310    19.5940 c          1 8ZI       0.612100
     31 N4           5.1670   -30.0490    20.3140 nt         1 8ZI      -0.590000
     32 O4           6.1810   -30.9380    18.5380 o          1 8ZI      -0.604100
     33 O5           7.8910   -30.4350    21.4960 oh         1 8ZI      -0.660000
     34 C25          7.7190   -26.0370    18.9580 c5         1 8ZI      -0.156700
     35 C27          6.6830   -23.8830    19.1780 c5         1 8ZI       0.101000
     36 N5           7.0250   -24.1620    17.7850 ns         1 8ZI      -0.514900
     37 H1           9.8570   -28.0860    20.5330 hn         1 8ZI       0.317500
     38 H2          11.7930   -27.4650    25.3870 hc         1 8ZI       0.101700
     39 H3          14.4900   -26.2400    22.9130 hc         1 8ZI       0.043367
     40 H4          13.8090   -27.0480    21.4940 hc         1 8ZI       0.043367
     41 H5          13.0260   -25.6190    22.1600 hc         1 8ZI       0.043367
     42 H6          13.0420   -29.4070    24.3270 hc         1 8ZI       0.043367
     43 H7          13.8450   -29.2590    22.7580 hc         1 8ZI       0.043367
     44 H8          14.5140   -28.4370    24.1800 hc         1 8ZI       0.043367
     45 H9          12.3000   -24.8130    24.2990 h1         1 8ZI       0.065700
     46 H10         10.8610   -25.1700    25.2600 h1         1 8ZI       0.065700
     47 H11         10.9140   -22.9400    24.2510 h1         1 8ZI       0.088700
     48 H12          9.2110   -23.7310    25.9170 hc         1 8ZI       0.040367
     49 H13          7.4830   -23.5290    25.5930 hc         1 8ZI       0.040367
     50 H14          8.4150   -24.6960    24.6530 hc         1 8ZI       0.040367
     51 H15         13.1920   -17.6240    20.6430 hc         1 8ZI       0.037256
     52 H16         11.4290   -17.4390    20.7270 hc         1 8ZI       0.037256
     53 H17         12.4720   -16.4910    21.8020 hc         1 8ZI       0.037256
     54 H18          6.8770   -27.9620    20.8900 h1         1 8ZI       0.090700
     55 H19          8.4170   -30.1890    19.4900 h1         1 8ZI       0.064700
     56 H20          6.6970   -27.8810    18.4260 hc         1 8ZI       0.072700
     57 H21          8.4390   -27.9740    18.2700 hc         1 8ZI       0.072700
     58 H22          5.5980   -25.7640    19.4950 hc         1 8ZI       0.061700
     59 H23          6.6950   -25.3650    20.8230 hc         1 8ZI       0.061700
     60 H24         10.9660   -26.4920    21.3820 h1         1 8ZI       0.082700
     61 H25         10.8340   -28.6550    23.3440 hc         1 8ZI       0.096700
     62 H26          6.6840   -22.3700    23.4570 hc         1 8ZI       0.040367
     63 H27          7.8480   -21.8300    22.2360 hc         1 8ZI       0.040367
     64 H28          7.5780   -23.5630    22.5080 hc         1 8ZI       0.040367
     65 H29          9.5780   -21.1670    25.5550 hc         1 8ZI       0.040367
     66 H30          8.8420   -20.3890    24.1390 hc         1 8ZI       0.040367
     67 H31          7.8140   -21.1030    25.3830 hc         1 8ZI       0.040367
     68 H32          9.9330   -21.1860    22.0570 hn         1 8ZI       0.324500
     69 H33         11.2400   -19.8840    20.9850 hc         1 8ZI       0.062700
     70 H34         13.0050   -20.1490    21.0370 hc         1 8ZI       0.062700
     71 H35         13.5620   -19.3060    24.0370 hc         1 8ZI       0.037256
     72 H36         14.4610   -18.8080    22.5890 hc         1 8ZI       0.037256
     73 H37         13.7520   -17.5890    23.6650 hc         1 8ZI       0.037256
     74 H38         11.0310   -19.0740    24.1370 hc         1 8ZI       0.037256
     75 H39         11.1490   -17.3440    23.7870 hc         1 8ZI       0.037256
     76 H40         10.1280   -18.3810    22.7730 hc         1 8ZI       0.037256
     77 H41          4.2670   -30.3560    19.9750 hn         1 8ZI       0.323000
     78 H42          5.2530   -29.6020    21.2140 hn         1 8ZI       0.323000
     79 H43          8.6020   -29.8960    21.9080 ho         1 8ZI       0.458000
     80 H44          8.6720   -25.7240    19.4010 hc         1 8ZI       0.090700
     81 H45          7.4810   -23.3170    19.6790 h1         1 8ZI       0.043200
     82 H46          5.7420   -23.3280    19.2850 h1         1 8ZI       0.043200
     83 H47          6.7900   -23.5870    16.9840 hn         1 8ZI       0.325500
     84 O6           7.8400   -25.8360    16.4720 o          1 8ZI      -0.556000
     85 C13          8.4570   -23.7060    25.1200 c3         1 8ZI      -0.089433
     86 C15         11.9110   -21.1800    22.5700 c          1 8ZI       0.604100
@<TRIPOS>BOND
     1     1     7 1   
     2     1    18 1   
     3     1    20 1   
     4     2    11 1   
     5     2    17 1   
     6     2    37 1   
     7     3     4 1   
     8     3     7 1   
     9     3    19 1   
    10     3    38 1   
    11     4     5 1   
    12     4     6 1   
    13     4    19 1   
    14     5    39 1   
    15     5    40 1   
    16     5    41 1   
    17     6    42 1   
    18     6    43 1   
    19     6    44 1   
    20     7    45 1   
    21     7    46 1   
    22     8    20 1   
    23     8    21 1   
    24     8    24 1   
    25     8    47 1   
    26     9    10 1   
    27     9    25 1   
    28     9    26 1   
    29     9    27 1   
    30    10    51 1   
    31    10    52 1   
    32    10    53 1   
    33    11    12 1   
    34    11    13 1   
    35    11    54 1   
    36    12    30 1   
    37    12    33 1   
    38    12    55 1   
    39    13    34 1   
    40    13    56 1   
    41    13    57 1   
    42    14    34 1   
    43    14    35 1   
    44    14    58 1   
    45    14    59 1   
    46    15    34 1   
    47    15    36 1   
    48    15    84 2   
    49    16    17 2   
    50    17    18 1   
    51    18    19 1   
    52    18    60 1   
    53    19    61 1   
    54    20    29 2   
    55    21    22 1   
    56    21    23 1   
    57    21    85 1   
    58    22    62 1   
    59    22    63 1   
    60    22    64 1   
    61    23    65 1   
    62    23    66 1   
    63    23    67 1   
    64    24    68 1   
    65    24    86 1   
    66    25    69 1   
    67    25    70 1   
    68    25    86 1   
    69    26    71 1   
    70    26    72 1   
    71    26    73 1   
    72    27    74 1   
    73    27    75 1   
    74    27    76 1   
    75    28    86 2   
    76    30    31 1   
    77    30    32 2   
    78    31    77 1   
    79    31    78 1   
    80    33    79 1   
    81    34    80 1   
    82    35    36 1   
    83    35    81 1   
    84    35    82 1   
    85    36    83 1   
    86    48    85 1   
    87    49    85 1   
    88    50    85 1   
@<TRIPOS>SUBSTRUCTURE
     1 8ZI         1 TEMP              0 ****  ****    0 ROOT
