@<TRIPOS>MOLECULE
8ZJ
   33    35     1     0     0
SMALL
abcg2


@<TRIPOS>ATOM
      1 C10         -2.4510     1.7290    -0.2200 ca         1 8ZJ      -0.073000
      2 C13          2.3230    -0.0440    -0.0190 cc         1 8ZJ      -0.226200
      3 O01          0.0110    -3.8690    -0.1010 oh         1 8ZJ      -0.523100
      4 C02         -0.1470    -2.5610    -0.0740 cc         1 8ZJ       0.175100
      5 C03         -1.3260    -1.8740    -0.0740 cd         1 8ZJ      -0.307000
      6 C04         -1.2840    -0.4570    -0.0400 cd         1 8ZJ       0.475500
      7 C05         -2.5260     0.3460    -0.0300 ca         1 8ZJ      -0.161500
      8 C06         -3.7800    -0.2320     0.1710 ca         1 8ZJ      -0.073000
      9 C07         -4.9270     0.5480     0.1780 ca         1 8ZJ      -0.122500
     10 C08         -4.8410     1.9190    -0.0190 ca         1 8ZJ      -0.092000
     11 C09         -3.5970     2.5060    -0.2170 ca         1 8ZJ      -0.122500
     12 N11         -0.1550     0.2070    -0.0230 nd         1 8ZJ      -0.644000
     13 C12          0.9940    -0.4670    -0.0330 cd         1 8ZJ       0.449500
     14 N15          4.0860     1.5660     0.0790 ns         1 8ZJ      -0.515900
     15 C16          4.6520     2.8920     0.0930 c3         1 8ZJ       0.101300
     16 O17          1.9680     2.2960    -0.0830 o          1 8ZJ      -0.595100
     17 C18          3.1210    -1.2180    -0.0270 cc         1 8ZJ      -0.175000
     18 C19          2.3140    -2.3170    -0.0440 cd         1 8ZJ      -0.232100
     19 N20          1.0160    -1.8640    -0.0480 na         1 8ZJ      -0.068400
     20 H101        -1.4840     2.1890    -0.3730 ha         1 8ZJ       0.128500
     21 H011        -0.8430    -4.3210    -0.1100 ho         1 8ZJ       0.500000
     22 H031        -2.2520    -2.4270    -0.1130 ha         1 8ZJ       0.136000
     23 H061        -3.8820    -1.2960     0.3360 ha         1 8ZJ       0.128500
     24 H071        -5.8900     0.0810     0.3410 ha         1 8ZJ       0.115500
     25 H081        -5.7360     2.5280    -0.0170 ha         1 8ZJ       0.113000
     26 H091        -3.5200     3.5750    -0.3680 ha         1 8ZJ       0.115500
     27 H151         4.7160     0.7890     0.1680 hn         1 8ZJ       0.310500
     28 H163         5.7330     2.8020     0.1540 h1         1 8ZJ       0.035700
     29 H161         4.4080     3.4470    -0.8140 h1         1 8ZJ       0.035700
     30 H162         4.3090     3.4750     0.9500 h1         1 8ZJ       0.035700
     31 H181         4.1990    -1.2730    -0.0260 ha         1 8ZJ       0.199000
     32 H191         2.5560    -3.3650    -0.0590 h4         1 8ZJ       0.233000
     33 C14          2.7560     1.3580    -0.0100 c          1 8ZJ       0.644300
@<TRIPOS>BOND
     1     1     7 ar  
     2     1    11 ar  
     3     1    20 1   
     4     2    13 2   
     5     2    17 1   
     6     2    33 1   
     7     3     4 1   
     8     3    21 1   
     9     4     5 2   
    10     4    19 1   
    11     5     6 1   
    12     5    22 1   
    13     6     7 1   
    14     6    12 2   
    15     7     8 ar  
    16     8     9 ar  
    17     8    23 1   
    18     9    10 ar  
    19     9    24 1   
    20    10    11 ar  
    21    10    25 1   
    22    11    26 1   
    23    12    13 1   
    24    13    19 1   
    25    14    15 1   
    26    14    27 1   
    27    14    33 1   
    28    15    28 1   
    29    15    29 1   
    30    15    30 1   
    31    16    33 2   
    32    17    18 2   
    33    17    31 1   
    34    18    19 1   
    35    18    32 1   
@<TRIPOS>SUBSTRUCTURE
     1 8ZJ         1 TEMP              0 ****  ****    0 ROOT
