@<TRIPOS>MOLECULE
8ZJ
   33    35     1     0     0
SMALL
No Charge or Current Charge


@<TRIPOS>ATOM
      1 C10         -2.6170     1.6600    -0.6740 ca         1 8ZJ      -0.073000
      2 C13          2.2870    -0.0010     0.0310 cc         1 8ZJ      -0.226200
      3 O01         -0.0440    -3.9280    -0.3120 oh         1 8ZJ      -0.523100
      4 C02         -0.1200    -2.5870    -0.2160 cc         1 8ZJ       0.175100
      5 C03         -1.2770    -1.8340    -0.2080 cd         1 8ZJ      -0.307000
      6 C04         -1.2600    -0.3850    -0.1030 cd         1 8ZJ       0.475500
      7 C05         -2.5350     0.3690    -0.1000 ca         1 8ZJ      -0.161500
      8 C06         -3.6770    -0.1540     0.5490 ca         1 8ZJ      -0.073000
      9 C07         -4.8780     0.5760     0.5870 ca         1 8ZJ      -0.122500
     10 C08         -4.9530     1.8440    -0.0100 ca         1 8ZJ      -0.092000
     11 C09         -3.8200     2.3870    -0.6360 ca         1 8ZJ      -0.122500
     12 N11         -0.1040     0.3900    -0.0230 nd         1 8ZJ      -0.644000
     13 C12          0.9910    -0.4450    -0.0380 cd         1 8ZJ       0.449500
     14 N15          4.1090     1.5400     0.1840 ns         1 8ZJ      -0.515900
     15 C16          4.8160     2.8180     0.2840 c3         1 8ZJ       0.101300
     16 O17          2.0130     2.3920     0.1650 o          1 8ZJ      -0.595100
     17 C18          3.1210    -1.1650    -0.0130 cc         1 8ZJ      -0.175000
     18 C19          2.3430    -2.2950    -0.1080 cd         1 8ZJ      -0.232100
     19 N20          1.0250    -1.8230    -0.1220 na         1 8ZJ      -0.068400
     20 H101        -1.7510     2.1020    -1.1640 ha         1 8ZJ       0.128500
     21 H011        -0.9650    -4.2620    -0.3720 ho         1 8ZJ       0.500000
     22 H031        -2.2300    -2.3400    -0.2940 ha         1 8ZJ       0.136000
     23 H061        -3.6390    -1.1250     1.0410 ha         1 8ZJ       0.128500
     24 H071        -5.7500     0.1590     1.0860 ha         1 8ZJ       0.115500
     25 H081        -5.8820     2.4080     0.0210 ha         1 8ZJ       0.113000
     26 H091        -3.8720     3.3730    -1.0910 ha         1 8ZJ       0.115500
     27 H151         4.6510     0.6870     0.1510 hn         1 8ZJ       0.310500
     28 H163         5.8980     2.6360     0.3090 h1         1 8ZJ       0.035700
     29 H161         4.5740     3.4430    -0.5850 h1         1 8ZJ       0.035700
     30 H162         4.5140     3.3360     1.2030 h1         1 8ZJ       0.035700
     31 H181         4.2100    -1.1650     0.0220 ha         1 8ZJ       0.199000
     32 H191         2.6050    -3.3490    -0.1660 h4         1 8ZJ       0.233000
     33 C14          2.7390     1.4090     0.1300 c          1 8ZJ       0.644300
@<TRIPOS>BOND
     1     1     7 ar  
     2     1    11 ar  
     3     1    20 1   
     4     2    13 2   
     5     2    17 1   
     6     2    33 1   
     7     3     4 1   
     8     3    21 1   
     9     4     5 2   
    10     4    19 1   
    11     5     6 1   
    12     5    22 1   
    13     6     7 1   
    14     6    12 2   
    15     7     8 ar  
    16     8     9 ar  
    17     8    23 1   
    18     9    10 ar  
    19     9    24 1   
    20    10    11 ar  
    21    10    25 1   
    22    11    26 1   
    23    12    13 1   
    24    13    19 1   
    25    14    15 1   
    26    14    27 1   
    27    14    33 1   
    28    15    28 1   
    29    15    29 1   
    30    15    30 1   
    31    16    33 2   
    32    17    18 2   
    33    17    31 1   
    34    18    19 1   
    35    18    32 1   
@<TRIPOS>SUBSTRUCTURE
     1 8ZJ         1 TEMP              0 ****  ****    0 ROOT
