@<TRIPOS>MOLECULE
8ZK
   62    65     1     0     0
SMALL
abcg2


@<TRIPOS>ATOM
      1 CAU          3.3700    -4.0160    -0.1340 c6         1 8ZK      -0.130900
      2 CAV          3.8110    -5.4790    -0.0800 c6         1 8ZK       0.151300
      3 NAW          4.5680    -5.8270     1.1100 n7         1 8ZK      -0.846400
      4 CAX          5.7060    -4.9430     1.3010 c6         1 8ZK       0.151300
      5 CAY          5.3430    -3.4580     1.3080 c6         1 8ZK      -0.130900
      6 CAT          4.5670    -3.0890     0.0440 c6         1 8ZK       0.109700
      7 NAS          4.1290    -1.7070     0.0660 ns         1 8ZK      -0.495900
      8 CAR          4.8460    -0.6840    -0.4260 c          1 8ZK       0.612700
      9 OAZ          5.9280    -0.8260    -0.9810 o          1 8ZK      -0.602100
     10 CAQ          4.2400     0.6760    -0.2580 ca         1 8ZK      -0.121600
     11 CBA          2.8590     0.8530    -0.2140 ca         1 8ZK      -0.114000
     12 CAP          5.0960     1.7650    -0.1680 ca         1 8ZK      -0.080000
     13 CAM          4.5850     3.0490     0.0010 ca         1 8ZK      -0.055300
     14 CAN          5.5090     4.2320     0.0810 c3         1 8ZK      -0.033100
     15 CAO          5.9080     4.7370    -1.3040 c3         1 8ZK      -0.088100
     16 CAL          3.2100     3.2210     0.0510 ca         1 8ZK      -0.147000
     17 CAK          2.3390     2.1350    -0.0640 ca         1 8ZK       0.292000
     18 NAJ          0.9740     2.4260    -0.0300 nu         1 8ZK      -0.919900
     19 CAI         -0.0750     1.5820    -0.1020 cc         1 8ZK       0.740300
     20 SBB         -1.6900     2.2370    -0.1480 ss         1 8ZK      -0.101400
     21 NAH         -0.0170     0.2820    -0.1520 nd         1 8ZK      -0.738000
     22 CAG         -1.2570    -0.2550    -0.2230 cd         1 8ZK       0.397900
     23 CAF         -2.3060     0.6130    -0.2250 cc         1 8ZK      -0.332600
     24 CAE         -3.7180     0.2250    -0.3010 c          1 8ZK       0.662700
     25 OBC         -4.0410    -0.9370    -0.4800 o          1 8ZK      -0.571100
     26 NAD         -4.6300     1.2230    -0.1670 ns         1 8ZK      -0.166000
     27 CAC         -6.0150     0.9780    -0.2340 ca         1 8ZK      -0.042000
     28 CAB         -6.6200     0.6590    -1.4470 ca         1 8ZK       0.133000
     29 CL          -5.6660     0.5870    -2.8860 cl         1 8ZK      -0.183000
     30 CBH         -7.9820     0.4190    -1.5310 ca         1 8ZK      -0.100000
     31 CBG         -8.7510     0.5170    -0.3830 ca         1 8ZK      -0.098000
     32 CBF         -8.1620     0.8470     0.8290 ca         1 8ZK      -0.104000
     33 CBD         -6.7930     1.0730     0.9240 ca         1 8ZK      -0.074300
     34 CBE         -6.1570     1.4160     2.2380 c3         1 8ZK      -0.047800
     35 H1           2.8710    -3.8080    -1.0840 hc         1 8ZK       0.049700
     36 H2           2.6400    -3.8300     0.6620 hc         1 8ZK       0.049700
     37 H3           2.9400    -6.1320    -0.1470 h1         1 8ZK       0.055700
     38 H4           4.4330    -5.6990    -0.9550 h1         1 8ZK       0.055700
     39 H5           3.9600    -5.7580     1.9190 hn         1 8ZK       0.403000
     40 H7           6.2060    -5.2100     2.2340 h1         1 8ZK       0.055700
     41 H8           6.4260    -5.1350     0.4970 h1         1 8ZK       0.055700
     42 H9           4.7300    -3.2340     2.1870 hc         1 8ZK       0.049700
     43 H10          6.2470    -2.8490     1.3820 hc         1 8ZK       0.049700
     44 H11          5.2300    -3.2040    -0.8180 h1         1 8ZK       0.083700
     45 H12          3.3360    -1.4990     0.6530 hn         1 8ZK       0.315500
     46 H13          2.1880     0.0150    -0.3170 ha         1 8ZK       0.156000
     47 H14          6.1680     1.6170    -0.2110 ha         1 8ZK       0.138000
     48 H15          5.0290     5.0390     0.6390 hc         1 8ZK       0.048200
     49 H16          6.4050     3.9540     0.6400 hc         1 8ZK       0.048200
     50 H17          6.5910     5.5830    -1.2260 hc         1 8ZK       0.038033
     51 H18          6.4070     3.9560    -1.8790 hc         1 8ZK       0.038033
     52 H19          5.0350     5.0620    -1.8710 hc         1 8ZK       0.038033
     53 H20          2.8040     4.2190     0.1820 ha         1 8ZK       0.110000
     54 H21          0.7550     3.4080     0.0400 hn         1 8ZK       0.507000
     55 H22         -1.3680    -1.3290    -0.2680 h4         1 8ZK       0.061100
     56 H23         -4.3410     2.1400     0.1390 hn         1 8ZK       0.158000
     57 H24         -8.4330     0.1670    -2.4810 ha         1 8ZK       0.132000
     58 H25         -9.8160     0.3380    -0.4370 ha         1 8ZK       0.120000
     59 H26         -8.7740     0.9180     1.7190 ha         1 8ZK       0.118000
     60 H27         -5.7210     2.4170     2.2260 hc         1 8ZK       0.045700
     61 H28         -6.8910     1.3870     3.0400 hc         1 8ZK       0.045700
     62 H29         -5.3550     0.7210     2.4900 hc         1 8ZK       0.045700
@<TRIPOS>BOND
     1     1     2 1   
     2     1     6 1   
     3     1    35 1   
     4     1    36 1   
     5     2     3 1   
     6     2    37 1   
     7     2    38 1   
     8     3     4 1   
     9     3    39 1   
    10     4     5 1   
    11     4    40 1   
    12     4    41 1   
    13     5     6 1   
    14     5    42 1   
    15     5    43 1   
    16     6     7 1   
    17     6    44 1   
    18     7     8 1   
    19     7    45 1   
    20     8     9 2   
    21     8    10 1   
    22    10    11 ar  
    23    10    12 ar  
    24    11    17 ar  
    25    11    46 1   
    26    12    13 ar  
    27    12    47 1   
    28    13    14 1   
    29    13    16 ar  
    30    14    15 1   
    31    14    48 1   
    32    14    49 1   
    33    15    50 1   
    34    15    51 1   
    35    15    52 1   
    36    16    17 ar  
    37    16    53 1   
    38    17    18 1   
    39    18    19 1   
    40    18    54 1   
    41    19    20 1   
    42    19    21 2   
    43    20    23 1   
    44    21    22 1   
    45    22    23 2   
    46    22    55 1   
    47    23    24 1   
    48    24    25 2   
    49    24    26 1   
    50    26    27 1   
    51    26    56 1   
    52    27    28 ar  
    53    27    33 ar  
    54    28    29 1   
    55    28    30 ar  
    56    30    31 ar  
    57    30    57 1   
    58    31    32 ar  
    59    31    58 1   
    60    32    33 ar  
    61    32    59 1   
    62    33    34 1   
    63    34    60 1   
    64    34    61 1   
    65    34    62 1   
@<TRIPOS>SUBSTRUCTURE
     1 8ZK         1 TEMP              0 ****  ****    0 ROOT
