@<TRIPOS>MOLECULE
8ZK
   62    65     1     0     0
SMALL
No Charge or Current Charge


@<TRIPOS>ATOM
      1 CAU          3.5930    -4.1200    -0.2620 c6         1 8ZK      -0.130900
      2 CAV          4.0430    -5.5960    -0.1620 c6         1 8ZK       0.151300
      3 NAW          4.5010    -5.9130     1.2120 n7         1 8ZK      -0.846400
      4 CAX          5.6100    -5.0380     1.6630 c6         1 8ZK       0.151300
      5 CAY          5.1950    -3.5500     1.6000 c6         1 8ZK      -0.130900
      6 CAT          4.7300    -3.1640     0.1740 c6         1 8ZK       0.109700
      7 NAS          4.2620    -1.7740     0.1380 ns         1 8ZK      -0.495900
      8 CAR          5.0640    -0.6580     0.0190 c          1 8ZK       0.612700
      9 OAZ          6.2780    -0.7620    -0.0940 o          1 8ZK      -0.602100
     10 CAQ          4.3660     0.6890     0.0350 ca         1 8ZK      -0.121600
     11 CBA          2.9680     0.8150     0.2350 ca         1 8ZK      -0.114000
     12 CAP          5.1250     1.8660    -0.1510 ca         1 8ZK      -0.080000
     13 CAM          4.5140     3.1330    -0.1370 ca         1 8ZK      -0.055300
     14 CAN          5.3490     4.3900    -0.3400 c3         1 8ZK      -0.033100
     15 CAO          5.4760     4.7680    -1.8270 c3         1 8ZK      -0.088100
     16 CAL          3.1250     3.2300     0.0560 ca         1 8ZK      -0.147000
     17 CAK          2.3470     2.0770     0.2320 ca         1 8ZK       0.292000
     18 NAJ          0.9740     2.2190     0.4400 nu         1 8ZK      -0.919900
     19 CAI         -0.1120     1.5090     0.0240 cc         1 8ZK       0.740300
     20 SBB         -1.7470     1.9950     0.3860 ss         1 8ZK      -0.101400
     21 NAH          0.0450     0.4330    -0.7130 nd         1 8ZK      -0.738000
     22 CAG         -1.1980    -0.1010    -1.0330 cd         1 8ZK       0.397900
     23 CAF         -2.2630     0.6010    -0.5280 cc         1 8ZK      -0.332600
     24 CAE         -3.6550     0.1920    -0.7580 c          1 8ZK       0.662700
     25 OBC         -3.9620    -0.8060    -1.3990 o          1 8ZK      -0.571100
     26 NAD         -4.5770     1.0290    -0.1570 ns         1 8ZK      -0.166000
     27 CAC         -5.9960     0.9970    -0.1940 ca         1 8ZK      -0.042000
     28 CAB         -6.7060     1.0260    -1.4200 ca         1 8ZK       0.133000
     29 Cl          -5.8790     1.1840    -2.9720 cl         1 8ZK      -0.183000
     30 CBH         -8.1100     0.9950    -1.4220 ca         1 8ZK      -0.100000
     31 CBG         -8.8180     0.9430    -0.2120 ca         1 8ZK      -0.098000
     32 CBF         -8.1210     0.9370     1.0070 ca         1 8ZK      -0.104000
     33 CBD         -6.7130     0.9710     1.0260 ca         1 8ZK      -0.074300
     34 CBE         -5.9810     0.9610     2.3660 c3         1 8ZK      -0.047800
     35 H1           3.2940    -3.8980    -1.2960 hc         1 8ZK       0.049700
     36 H2           2.7040    -3.9630     0.3630 hc         1 8ZK       0.049700
     37 H3           3.2070    -6.2570    -0.4370 h1         1 8ZK       0.055700
     38 H4           4.8600    -5.7820    -0.8760 h1         1 8ZK       0.055700
     39 H5           3.7080    -5.7810     1.8530 hn         1 8ZK       0.403000
     40 H7           5.8950    -5.2990     2.6940 h1         1 8ZK       0.055700
     41 H8           6.4920    -5.2010     1.0250 h1         1 8ZK       0.055700
     42 H9           4.3910    -3.3590     2.3240 hc         1 8ZK       0.049700
     43 H10          6.0430    -2.9210     1.9010 hc         1 8ZK       0.049700
     44 H11          5.5740    -3.2730    -0.5240 h1         1 8ZK       0.083700
     45 H12          3.2680    -1.6100     0.2090 hn         1 8ZK       0.315500
     46 H13          2.3500    -0.0590     0.4070 ha         1 8ZK       0.156000
     47 H14          6.2000     1.7990    -0.3070 ha         1 8ZK       0.138000
     48 H15          4.9070     5.2320     0.2060 hc         1 8ZK       0.048200
     49 H16          6.3540     4.2500     0.0790 hc         1 8ZK       0.048200
     50 H17          6.0810     5.6750    -1.9420 hc         1 8ZK       0.038033
     51 H18          5.9560     3.9600    -2.3920 hc         1 8ZK       0.038033
     52 H19          4.4880     4.9550    -2.2630 hc         1 8ZK       0.038033
     53 H20          2.6500     4.2070     0.0620 ha         1 8ZK       0.110000
     54 H21          0.6930     3.1320     0.7840 hn         1 8ZK       0.507000
     55 H22         -1.2550    -1.0000    -1.6360 h4         1 8ZK       0.061100
     56 H23         -4.1780     1.7740     0.3990 hn         1 8ZK       0.158000
     57 H24         -8.6500     1.0230    -2.3650 ha         1 8ZK       0.132000
     58 H25         -9.9060     0.9200    -0.2170 ha         1 8ZK       0.120000
     59 H26         -8.6810     0.9070     1.9390 ha         1 8ZK       0.118000
     60 H27         -5.3710     1.8650     2.4890 hc         1 8ZK       0.045700
     61 H28         -6.6770     0.9190     3.2110 hc         1 8ZK       0.045700
     62 H29         -5.3160     0.0930     2.4460 hc         1 8ZK       0.045700
@<TRIPOS>BOND
     1     1     2 1   
     2     1     6 1   
     3     1    35 1   
     4     1    36 1   
     5     2     3 1   
     6     2    37 1   
     7     2    38 1   
     8     3     4 1   
     9     3    39 1   
    10     4     5 1   
    11     4    40 1   
    12     4    41 1   
    13     5     6 1   
    14     5    42 1   
    15     5    43 1   
    16     6     7 1   
    17     6    44 1   
    18     7     8 1   
    19     7    45 1   
    20     8     9 2   
    21     8    10 1   
    22    10    11 ar  
    23    10    12 ar  
    24    11    17 ar  
    25    11    46 1   
    26    12    13 ar  
    27    12    47 1   
    28    13    14 1   
    29    13    16 ar  
    30    14    15 1   
    31    14    48 1   
    32    14    49 1   
    33    15    50 1   
    34    15    51 1   
    35    15    52 1   
    36    16    17 ar  
    37    16    53 1   
    38    17    18 1   
    39    18    19 1   
    40    18    54 1   
    41    19    20 1   
    42    19    21 2   
    43    20    23 1   
    44    21    22 1   
    45    22    23 2   
    46    22    55 1   
    47    23    24 1   
    48    24    25 2   
    49    24    26 1   
    50    26    27 1   
    51    26    56 1   
    52    27    28 ar  
    53    27    33 ar  
    54    28    29 1   
    55    28    30 ar  
    56    30    31 ar  
    57    30    57 1   
    58    31    32 ar  
    59    31    58 1   
    60    32    33 ar  
    61    32    59 1   
    62    33    34 1   
    63    34    60 1   
    64    34    61 1   
    65    34    62 1   
@<TRIPOS>SUBSTRUCTURE
     1 8ZK         1 TEMP              0 ****  ****    0 ROOT
