@<TRIPOS>MOLECULE
8ZL
   74    76     1     0     0
SMALL
abcg2


@<TRIPOS>ATOM
      1 N1          -2.2350     1.5590   -23.9010 n          1 8ZL      -0.391800
      2 C7          -0.7890     0.0950   -25.0270 c5         1 8ZL      -0.084400
      3 C8          -1.8590     1.1670   -25.2530 c5         1 8ZL       0.029700
      4 N2          -3.2940     1.2230   -27.2040 ns         1 8ZL      -0.498900
      5 C9          -3.0620     0.6240   -26.0210 c          1 8ZL       0.598100
      6 C5          -1.3710     0.9630   -22.8830 c5         1 8ZL       0.107000
      7 C6          -0.1710     0.4930   -23.6910 c5         1 8ZL      -0.094400
      8 N3          -5.7900     2.1960   -26.5550 ns         1 8ZL      -0.491900
      9 C4          -3.2010     2.4610   -23.7060 c          1 8ZL       0.622100
     10 C3          -3.5280     2.8930   -22.2990 c3         1 8ZL      -0.149400
     11 O3          -4.0680     2.7630   -29.4410 os         1 8ZL      -0.452100
     12 C2          -2.7980     4.1940   -21.9350 c3         1 8ZL      -0.158400
     13 N4          -7.3310     1.3340   -24.1810 n          1 8ZL      -0.397800
     14 O6          -7.1350     3.5450   -23.7870 o          1 8ZL      -0.627100
     15 C25         -7.3480     1.0040   -22.7700 c3         1 8ZL       0.081300
     16 C24         -7.4830     0.1940   -25.0610 c3         1 8ZL       0.081300
     17 C21         -6.9750     2.8660   -26.0820 c3         1 8ZL       0.045700
     18 C20         -6.9140     4.3700   -26.3540 c3         1 8ZL       0.051600
     19 S           -6.5190     4.7770   -28.0780 ss         1 8ZL      -0.419000
     20 C19         -4.7230     5.0870   -27.9540 c3         1 8ZL       0.112900
     21 C18         -4.2400     5.6490   -29.2620 ca         1 8ZL      -0.011300
     22 C17         -4.1070     7.0370   -29.3200 ca         1 8ZL      -0.117000
     23 C16         -3.7040     7.6920   -30.4700 ca         1 8ZL      -0.080000
     24 C15         -3.4330     6.9600   -31.6160 ca         1 8ZL      -0.121000
     25 C14         -3.5770     5.5860   -31.5890 ca         1 8ZL      -0.063000
     26 C13         -3.9730     4.9120   -30.4300 ca         1 8ZL      -0.123600
     27 C12         -4.0680     3.4310   -30.5850 c          1 8ZL       0.617700
     28 C11         -4.1240     1.3340   -29.4860 c3         1 8ZL       0.160600
     29 C22         -5.7670     1.4130   -27.6380 c          1 8ZL       0.602100
     30 C10         -4.3940     0.8710   -28.0660 c3         1 8ZL       0.029700
     31 O2          -3.7330    -0.2980   -25.5920 o          1 8ZL      -0.592100
     32 O           -2.1980     5.6810   -23.7250 o          1 8ZL      -0.608100
     33 N           -4.2770     5.8550   -22.8900 ns         1 8ZL      -0.494900
     34 C           -4.6930     6.8840   -23.8120 c3         1 8ZL       0.099300
     35 H1          -1.2510    -0.8900   -24.9460 hc         1 8ZL       0.068200
     36 H2          -0.0720     0.0660   -25.8450 hc         1 8ZL       0.068200
     37 H3          -1.4280     2.0260   -25.7770 h1         1 8ZL       0.070700
     38 H4          -2.7450     2.0350   -27.4430 hn         1 8ZL       0.333500
     39 H5          -1.0970     1.6890   -22.1190 h1         1 8ZL       0.053200
     40 H6          -1.8740     0.1240   -22.3940 h1         1 8ZL       0.053200
     41 H7           0.3550    -0.3290   -23.2070 hc         1 8ZL       0.060700
     42 H8           0.5360     1.3130   -23.8260 hc         1 8ZL       0.060700
     43 H9          -4.9280     2.4100   -26.0620 hn         1 8ZL       0.356500
     44 H10         -4.6070     3.0450   -22.2490 hc         1 8ZL       0.072200
     45 H11         -3.2820     2.1290   -21.5620 hc         1 8ZL       0.072200
     46 H12         -1.7230     4.0230   -21.8870 hc         1 8ZL       0.066200
     47 H13         -3.1230     4.4990   -20.9380 hc         1 8ZL       0.066200
     48 H14         -7.0620     1.8610   -22.1690 h1         1 8ZL       0.045200
     49 H15         -8.3410     0.6750   -22.4600 h1         1 8ZL       0.045200
     50 H16         -6.6440     0.1930   -22.5750 h1         1 8ZL       0.045200
     51 H17         -8.1960    -0.4970   -24.6130 h1         1 8ZL       0.045200
     52 H18         -7.8810     0.4730   -26.0320 h1         1 8ZL       0.045200
     53 H19         -6.5390    -0.3340   -25.2060 h1         1 8ZL       0.045200
     54 H20         -7.8290     2.4590   -26.6280 h1         1 8ZL       0.098700
     55 H21         -6.1770     4.8570   -25.7140 h1         1 8ZL       0.085200
     56 H22         -7.8800     4.8230   -26.1310 h1         1 8ZL       0.085200
     57 H23         -4.2020     4.1840   -27.6570 h1         1 8ZL       0.074200
     58 H24         -4.5680     5.8320   -27.1730 h1         1 8ZL       0.074200
     59 H25         -4.3260     7.6150   -28.4310 ha         1 8ZL       0.119000
     60 H26         -3.6020     8.7690   -30.4690 ha         1 8ZL       0.118000
     61 H27         -3.1140     7.4530   -32.5240 ha         1 8ZL       0.120000
     62 H28         -3.3690     5.0170   -32.4850 ha         1 8ZL       0.136000
     63 H29         -4.9210     0.9920   -30.1440 h1         1 8ZL       0.073700
     64 H30         -3.1750     0.9330   -29.8480 h1         1 8ZL       0.073700
     65 H31         -4.4870    -0.2180   -28.0980 h1         1 8ZL       0.102700
     66 H32         -4.9480     5.5160   -22.2210 hn         1 8ZL       0.321500
     67 H33         -5.7320     7.1300   -23.6090 h1         1 8ZL       0.038700
     68 H34         -4.0980     7.7920   -23.7010 h1         1 8ZL       0.038700
     69 H35         -4.6170     6.5520   -24.8480 h1         1 8ZL       0.038700
     70 O5          -6.7490     1.1070   -28.2970 o          1 8ZL      -0.610100
     71 O4          -4.1110     2.8830   -31.6580 o          1 8ZL      -0.486000
     72 O1          -3.8000     2.9650   -24.6580 o          1 8ZL      -0.645100
     73 C23         -7.1600     2.6090   -24.5760 c          1 8ZL       0.601100
     74 C1          -3.0520     5.3100   -22.9320 c          1 8ZL       0.602100
@<TRIPOS>BOND
     1     1     3 1   
     2     1     6 1   
     3     1     9 1   
     4     2     3 1   
     5     2     7 1   
     6     2    35 1   
     7     2    36 1   
     8     3     5 1   
     9     3    37 1   
    10     4     5 1   
    11     4    30 1   
    12     4    38 1   
    13     5    31 2   
    14     6     7 1   
    15     6    39 1   
    16     6    40 1   
    17     7    41 1   
    18     7    42 1   
    19     8    17 1   
    20     8    29 1   
    21     8    43 1   
    22     9    10 1   
    23     9    72 2   
    24    10    12 1   
    25    10    44 1   
    26    10    45 1   
    27    11    27 1   
    28    11    28 1   
    29    12    46 1   
    30    12    47 1   
    31    12    74 1   
    32    13    15 1   
    33    13    16 1   
    34    13    73 1   
    35    14    73 2   
    36    15    48 1   
    37    15    49 1   
    38    15    50 1   
    39    16    51 1   
    40    16    52 1   
    41    16    53 1   
    42    17    18 1   
    43    17    54 1   
    44    17    73 1   
    45    18    19 1   
    46    18    55 1   
    47    18    56 1   
    48    19    20 1   
    49    20    21 1   
    50    20    57 1   
    51    20    58 1   
    52    21    22 ar  
    53    21    26 ar  
    54    22    23 ar  
    55    22    59 1   
    56    23    24 ar  
    57    23    60 1   
    58    24    25 ar  
    59    24    61 1   
    60    25    26 ar  
    61    25    62 1   
    62    26    27 1   
    63    27    71 2   
    64    28    30 1   
    65    28    63 1   
    66    28    64 1   
    67    29    30 1   
    68    29    70 2   
    69    30    65 1   
    70    32    74 2   
    71    33    34 1   
    72    33    66 1   
    73    33    74 1   
    74    34    67 1   
    75    34    68 1   
    76    34    69 1   
@<TRIPOS>SUBSTRUCTURE
     1 8ZL         1 TEMP              0 ****  ****    0 ROOT
