@<TRIPOS>MOLECULE
8ZL
   74    76     1     0     0
SMALL
No Charge or Current Charge


@<TRIPOS>ATOM
      1 N1          -2.2310     1.6540   -24.1040 n          1 8ZL      -0.391800
      2 C7          -0.9020    -0.0760   -24.9960 c5         1 8ZL      -0.084400
      3 C8          -1.9330     1.0140   -25.4140 c5         1 8ZL       0.029700
      4 N2          -3.4190     0.9930   -27.3080 ns         1 8ZL      -0.498900
      5 C9          -3.1640     0.3490   -26.1150 c          1 8ZL       0.598100
      6 C5          -1.2580     1.3010   -23.0480 c5         1 8ZL       0.107000
      7 C6          -0.1180     0.6530   -23.8770 c5         1 8ZL      -0.094400
      8 N3          -5.9250     1.9480   -26.5960 ns         1 8ZL      -0.491900
      9 C4          -3.2680     2.5970   -23.9510 c          1 8ZL       0.622100
     10 C3          -3.5760     3.1890   -22.5660 c3         1 8ZL      -0.149400
     11 O3          -4.0390     2.6760   -29.4420 os         1 8ZL      -0.452100
     12 C2          -2.8750     4.5590   -22.3280 c3         1 8ZL      -0.158400
     13 N4          -7.2150     0.9830   -24.0950 n          1 8ZL      -0.397800
     14 O6          -7.4780     3.2210   -23.7060 o          1 8ZL      -0.627100
     15 C25         -7.1760     0.6790   -22.6470 c3         1 8ZL       0.081300
     16 C24         -7.5020    -0.1530   -25.0010 c3         1 8ZL       0.081300
     17 C21         -7.1020     2.6630   -26.0490 c3         1 8ZL       0.045700
     18 C20         -6.9890     4.1950   -26.2810 c3         1 8ZL       0.051600
     19 S           -6.5010     4.6470   -28.0190 ss         1 8ZL      -0.419000
     20 C19         -4.6850     4.9430   -27.7670 c3         1 8ZL       0.112900
     21 C18         -4.0380     5.6140   -28.9830 ca         1 8ZL      -0.011300
     22 C17         -3.6930     6.9770   -28.8430 ca         1 8ZL      -0.117000
     23 C16         -3.1250     7.6970   -29.9030 ca         1 8ZL      -0.080000
     24 C15         -2.8990     7.0650   -31.1310 ca         1 8ZL      -0.121000
     25 C14         -3.2360     5.7130   -31.2940 ca         1 8ZL      -0.063000
     26 C13         -3.7990     4.9630   -30.2340 ca         1 8ZL      -0.123600
     27 C12         -4.1210     3.5090   -30.5240 c          1 8ZL       0.617700
     28 C11         -4.2830     1.2670   -29.6290 c3         1 8ZL       0.160600
     29 C22         -5.9210     1.1520   -27.7220 c          1 8ZL       0.602100
     30 C10         -4.5360     0.6630   -28.2320 c3         1 8ZL       0.029700
     31 O2          -3.8330    -0.5950   -25.7180 o          1 8ZL      -0.592100
     32 O           -2.7380     5.7720   -24.4240 o          1 8ZL      -0.608100
     33 N           -4.3480     6.4260   -22.9580 ns         1 8ZL      -0.494900
     34 C           -4.9240     7.4890   -23.7830 c3         1 8ZL       0.099300
     35 H1          -1.3930    -0.9740   -24.6010 hc         1 8ZL       0.068200
     36 H2          -0.2630    -0.3920   -25.8290 hc         1 8ZL       0.068200
     37 H3          -1.4700     1.7460   -26.0900 h1         1 8ZL       0.070700
     38 H4          -2.8180     1.7750   -27.5490 hn         1 8ZL       0.333500
     39 H5          -0.9040     2.1760   -22.4880 h1         1 8ZL       0.053200
     40 H6          -1.6990     0.5850   -22.3420 h1         1 8ZL       0.053200
     41 H7           0.5010    -0.0250   -23.2780 hc         1 8ZL       0.060700
     42 H8           0.5470     1.4190   -24.2960 hc         1 8ZL       0.060700
     43 H9          -5.0170     2.1560   -26.1820 hn         1 8ZL       0.356500
     44 H10         -4.6600     3.3340   -22.4830 hc         1 8ZL       0.072200
     45 H11         -3.2360     2.5070   -21.7800 hc         1 8ZL       0.072200
     46 H12         -1.7890     4.4220   -22.3860 hc         1 8ZL       0.066200
     47 H13         -3.1620     4.8890   -21.3220 hc         1 8ZL       0.066200
     48 H14         -6.4510     1.3330   -22.1470 h1         1 8ZL       0.045200
     49 H15         -8.1690     0.8380   -22.2080 h1         1 8ZL       0.045200
     50 H16         -6.8740    -0.3640   -22.4850 h1         1 8ZL       0.045200
     51 H17         -7.9500    -0.9820   -24.4390 h1         1 8ZL       0.045200
     52 H18         -8.2070     0.1490   -25.7860 h1         1 8ZL       0.045200
     53 H19         -6.5710    -0.5040   -25.4610 h1         1 8ZL       0.045200
     54 H20         -8.0020     2.3110   -26.5670 h1         1 8ZL       0.098700
     55 H21         -6.2480     4.6160   -25.5880 h1         1 8ZL       0.085200
     56 H22         -7.9560     4.6620   -26.0530 h1         1 8ZL       0.085200
     57 H23         -4.1750     4.0090   -27.5110 h1         1 8ZL       0.074200
     58 H24         -4.5690     5.5970   -26.8930 h1         1 8ZL       0.074200
     59 H25         -3.8720     7.4890   -27.9000 ha         1 8ZL       0.119000
     60 H26         -2.8670     8.7460   -29.7740 ha         1 8ZL       0.118000
     61 H27         -2.4630     7.6210   -31.9570 ha         1 8ZL       0.120000
     62 H28         -3.0480     5.2420   -32.2570 ha         1 8ZL       0.136000
     63 H29         -5.1620     1.0890   -30.2630 h1         1 8ZL       0.073700
     64 H30         -3.4170     0.7810   -30.0990 h1         1 8ZL       0.073700
     65 H31         -4.6060    -0.4280   -28.3260 h1         1 8ZL       0.102700
     66 H32         -4.7540     6.2400   -22.0480 hn         1 8ZL       0.321500
     67 H33         -5.7530     7.9640   -23.2430 h1         1 8ZL       0.038700
     68 H34         -4.1570     8.2420   -24.0040 h1         1 8ZL       0.038700
     69 H35         -5.3010     7.0630   -24.7220 h1         1 8ZL       0.038700
     70 O5          -6.9630     0.8320   -28.2790 o          1 8ZL      -0.610100
     71 O4          -4.4020     3.1130   -31.6490 o          1 8ZL      -0.486000
     72 O1          -3.9370     2.9280   -24.9180 o          1 8ZL      -0.645100
     73 C23         -7.3140     2.3280   -24.5330 c          1 8ZL       0.601100
     74 C1          -3.3020     5.6240   -23.3500 c          1 8ZL       0.602100
@<TRIPOS>BOND
     1     1     3 1   
     2     1     6 1   
     3     1     9 1   
     4     2     3 1   
     5     2     7 1   
     6     2    35 1   
     7     2    36 1   
     8     3     5 1   
     9     3    37 1   
    10     4     5 1   
    11     4    30 1   
    12     4    38 1   
    13     5    31 2   
    14     6     7 1   
    15     6    39 1   
    16     6    40 1   
    17     7    41 1   
    18     7    42 1   
    19     8    17 1   
    20     8    29 1   
    21     8    43 1   
    22     9    10 1   
    23     9    72 2   
    24    10    12 1   
    25    10    44 1   
    26    10    45 1   
    27    11    27 1   
    28    11    28 1   
    29    12    46 1   
    30    12    47 1   
    31    12    74 1   
    32    13    15 1   
    33    13    16 1   
    34    13    73 1   
    35    14    73 2   
    36    15    48 1   
    37    15    49 1   
    38    15    50 1   
    39    16    51 1   
    40    16    52 1   
    41    16    53 1   
    42    17    18 1   
    43    17    54 1   
    44    17    73 1   
    45    18    19 1   
    46    18    55 1   
    47    18    56 1   
    48    19    20 1   
    49    20    21 1   
    50    20    57 1   
    51    20    58 1   
    52    21    22 ar  
    53    21    26 ar  
    54    22    23 ar  
    55    22    59 1   
    56    23    24 ar  
    57    23    60 1   
    58    24    25 ar  
    59    24    61 1   
    60    25    26 ar  
    61    25    62 1   
    62    26    27 1   
    63    27    71 2   
    64    28    30 1   
    65    28    63 1   
    66    28    64 1   
    67    29    30 1   
    68    29    70 2   
    69    30    65 1   
    70    32    74 2   
    71    33    34 1   
    72    33    66 1   
    73    33    74 1   
    74    34    67 1   
    75    34    68 1   
    76    34    69 1   
@<TRIPOS>SUBSTRUCTURE
     1 8ZL         1 TEMP              0 ****  ****    0 ROOT
