@<TRIPOS>MOLECULE
8ZM
   23    25     1     0     0
SMALL
abcg2


@<TRIPOS>ATOM
      1 C4           1.8430     0.0360    -0.0150 ca         1 8ZM      -0.176500
      2 C7           0.3720    -0.0620    -0.0360 cc         1 8ZM       0.513500
      3 C6           4.0300    -0.9540    -0.2670 ca         1 8ZM      -0.119500
      4 C9          -1.6240    -1.3890     0.1780 cd         1 8ZM       0.229100
      5 C8          -0.2590    -1.3100     0.1960 cc         1 8ZM      -0.328000
      6 C1           4.6240     0.2660     0.0280 ca         1 8ZM      -0.083000
      7 C2           3.8280     1.3730     0.2980 ca         1 8ZM      -0.119500
      8 C3           2.4480     1.2620     0.2700 ca         1 8ZM      -0.067000
      9 C5           2.6490    -1.0700    -0.2840 ca         1 8ZM      -0.067000
     10 N10         -2.2820    -0.2260    -0.0660 na         1 8ZM       0.021900
     11 C11         -1.6190     0.9470    -0.2680 cd         1 8ZM       0.401500
     12 N12         -0.2980     1.0500    -0.2600 nd         1 8ZM      -0.658000
     13 N13         -2.5450     1.8720    -0.4630 nc         1 8ZM      -0.107000
     14 N14         -3.7070     1.2500    -0.3740 nc         1 8ZM      -0.008000
     15 N15         -3.5990    -0.0010    -0.1390 nd         1 8ZM      -0.211400
     16 O16         -2.3900    -2.4280     0.3750 oh         1 8ZM      -0.481100
     17 HC6          4.6430    -1.8180    -0.4880 ha         1 8ZM       0.120000
     18 HC8          0.3160    -2.1970     0.4170 ha         1 8ZM       0.146000
     19 HC1          5.7020     0.3550     0.0460 ha         1 8ZM       0.118000
     20 HC2          4.2840     2.3250     0.5330 ha         1 8ZM       0.120000
     21 HC3          1.8340     2.1270     0.4820 ha         1 8ZM       0.125500
     22 HC5          2.2090    -2.0270    -0.5350 ha         1 8ZM       0.125500
     23 HO16        -1.8670    -3.2260     0.5370 ho         1 8ZM       0.505000
@<TRIPOS>BOND
     1     1     2 1   
     2     1     8 ar  
     3     1     9 ar  
     4     2     5 1   
     5     2    12 2   
     6     3     6 ar  
     7     3     9 ar  
     8     3    17 1   
     9     4     5 2   
    10     4    10 1   
    11     4    16 1   
    12     5    18 1   
    13     6     7 ar  
    14     6    19 1   
    15     7     8 ar  
    16     7    20 1   
    17     8    21 1   
    18     9    22 1   
    19    10    11 1   
    20    10    15 1   
    21    11    12 1   
    22    11    13 2   
    23    13    14 1   
    24    14    15 2   
    25    16    23 1   
@<TRIPOS>SUBSTRUCTURE
     1 8ZM         1 TEMP              0 ****  ****    0 ROOT
