@<TRIPOS>MOLECULE
8ZM
   23    25     1     0     0
SMALL
No Charge or Current Charge


@<TRIPOS>ATOM
      1 C4           1.8340     0.0500     0.0220 ca         1 8ZM      -0.176500
      2 C7           0.3430    -0.0300     0.0080 cc         1 8ZM       0.513500
      3 C6           4.0680    -0.9920     0.0090 ca         1 8ZM      -0.119500
      4 C9          -1.7200    -1.4280     0.0150 cd         1 8ZM       0.229100
      5 C8          -0.3440    -1.3160     0.0360 cc         1 8ZM      -0.328000
      6 C1           4.6820     0.2660     0.0390 ca         1 8ZM      -0.083000
      7 C2           3.8880     1.4180     0.0570 ca         1 8ZM      -0.119500
      8 C3           2.4870     1.3150     0.0470 ca         1 8ZM      -0.067000
      9 C5           2.6670    -1.1030    -0.0000 ca         1 8ZM      -0.067000
     10 N10         -2.3670    -0.2050    -0.0380 na         1 8ZM       0.021900
     11 C11         -1.6730     0.9490    -0.0600 cd         1 8ZM       0.401500
     12 N12         -0.3050     1.1400    -0.0410 nd         1 8ZM      -0.658000
     13 N13         -2.5380     1.9350    -0.1050 nc         1 8ZM      -0.107000
     14 N14         -3.7870     1.3060    -0.1080 nc         1 8ZM      -0.008000
     15 N15         -3.7020    -0.0080    -0.0660 nd         1 8ZM      -0.211400
     16 O16         -2.4090    -2.5900     0.0420 oh         1 8ZM      -0.481100
     17 HC6          4.6810    -1.8910    -0.0080 ha         1 8ZM       0.120000
     18 HC8          0.2320    -2.2260     0.0830 ha         1 8ZM       0.146000
     19 HC1          5.7670     0.3470     0.0470 ha         1 8ZM       0.118000
     20 HC2          4.3580     2.3990     0.0790 ha         1 8ZM       0.120000
     21 HC3          1.9180     2.2420     0.0630 ha         1 8ZM       0.125500
     22 HC5          2.2620    -2.1080    -0.0330 ha         1 8ZM       0.125500
     23 HO16        -1.7500    -3.3140     0.0790 ho         1 8ZM       0.505000
@<TRIPOS>BOND
     1     1     2 1   
     2     1     8 ar  
     3     1     9 ar  
     4     2     5 1   
     5     2    12 2   
     6     3     6 ar  
     7     3     9 ar  
     8     3    17 1   
     9     4     5 2   
    10     4    10 1   
    11     4    16 1   
    12     5    18 1   
    13     6     7 ar  
    14     6    19 1   
    15     7     8 ar  
    16     7    20 1   
    17     8    21 1   
    18     9    22 1   
    19    10    11 1   
    20    10    15 1   
    21    11    12 1   
    22    11    13 2   
    23    13    14 1   
    24    14    15 2   
    25    16    23 1   
@<TRIPOS>SUBSTRUCTURE
     1 8ZM         1 TEMP              0 ****  ****    0 ROOT
