@<TRIPOS>MOLECULE
8ZN
   59    62     1     0     0
SMALL
No Charge or Current Charge


@<TRIPOS>ATOM
      1 CAW          2.5170    -4.8090    -0.1730 c6         1 8ZN      -0.130900
      2 CAX          2.7920    -6.3180     0.0270 c6         1 8ZN       0.152300
      3 NAY          3.2640    -6.5870     1.4060 n7         1 8ZN      -0.846400
      4 CAZ          4.4860    -5.8230     1.7530 c6         1 8ZN       0.152300
      5 CBA          4.2490    -4.3040     1.5890 c6         1 8ZN      -0.130900
      6 CAV          3.7760    -3.9700     0.1530 c6         1 8ZN       0.115700
      7 NAU          3.4770    -2.5400     0.0240 ns         1 8ZN      -0.499900
      8 CAT          4.4010    -1.5420    -0.2030 c          1 8ZN       0.612700
      9 OBB          5.5890    -1.8020    -0.3420 o          1 8ZN      -0.596100
     10 CAS          3.8740    -0.1230    -0.2710 ca         1 8ZN      -0.125600
     11 CBC          2.5130     0.1900    -0.0340 ca         1 8ZN      -0.090000
     12 CAR          4.7650     0.9300    -0.5770 ca         1 8ZN      -0.038000
     13 CAM          4.3200     2.2680    -0.6420 ca         1 8ZN      -0.174300
     14 CAN          5.3050     3.3930    -0.9820 c3         1 8ZN       0.358300
     15 FAP          5.4430     3.5360    -2.3190 f          1 8ZN      -0.110667
     16 FAQ          4.9120     4.5920    -0.4950 f          1 8ZN      -0.110667
     17 FAO          6.5400     3.1610    -0.4800 f          1 8ZN      -0.110667
     18 CAL          2.9550     2.5460    -0.4150 ca         1 8ZN      -0.107000
     19 CAK          2.0490     1.5150    -0.1200 ca         1 8ZN       0.292000
     20 NAJ          0.7100     1.8390     0.1190 nu         1 8ZN      -0.920900
     21 CAI         -0.4670     1.2360    -0.2080 cc         1 8ZN       0.730300
     22 SBD         -2.0220     1.9320     0.1690 ss         1 8ZN      -0.084400
     23 NAH         -0.4630     0.1000    -0.8680 nd         1 8ZN      -0.737000
     24 CAG         -1.7700    -0.3070    -1.1090 cd         1 8ZN       0.393900
     25 CAF         -2.7280     0.5480    -0.6240 cc         1 8ZN      -0.327600
     26 CAE         -4.1650     0.2880    -0.7800 c          1 8ZN       0.660700
     27 OBE         -4.6100    -0.7080    -1.3360 o          1 8ZN      -0.566100
     28 NAD         -4.9620     1.2670    -0.2120 ns         1 8ZN      -0.165000
     29 CAC         -6.3760     1.3970    -0.2030 ca         1 8ZN      -0.044000
     30 CAB         -7.1260     1.4240    -1.4050 ca         1 8ZN       0.134000
     31 Cl          -6.3470     1.3780    -2.9900 cl         1 8ZN      -0.183000
     32 CBJ         -8.5230     1.5560    -1.3620 ca         1 8ZN      -0.100000
     33 CBI         -9.1840     1.6690    -0.1300 ca         1 8ZN      -0.097000
     34 CBH         -8.4460     1.6660     1.0640 ca         1 8ZN      -0.103000
     35 CBF         -7.0430     1.5380     1.0370 ca         1 8ZN      -0.074300
     36 CBG         -6.2650     1.5360     2.3510 c3         1 8ZN      -0.048800
     37 H1           2.2050    -4.6280    -1.2100 hc         1 8ZN       0.051200
     38 H2           1.6780    -4.5000     0.4660 hc         1 8ZN       0.051200
     39 H3           1.8730    -6.8900    -0.1700 h1         1 8ZN       0.056200
     40 H4           3.5510    -6.6530    -0.6960 h1         1 8ZN       0.056200
     41 H5           2.5190    -6.3150     2.0600 hn         1 8ZN       0.404000
     42 H7           4.7790    -6.0420     2.7920 h1         1 8ZN       0.056200
     43 H8           5.3170    -6.1380     1.1030 h1         1 8ZN       0.056200
     44 H9           3.5040    -3.9650     2.3210 hc         1 8ZN       0.051200
     45 H10          5.1780    -3.7630     1.8140 hc         1 8ZN       0.051200
     46 H11          4.5720    -4.2310    -0.5610 h1         1 8ZN       0.077700
     47 H12          2.5120    -2.2520     0.1090 hn         1 8ZN       0.319500
     48 H13          1.8020    -0.5840     0.2310 ha         1 8ZN       0.160000
     49 H14          5.8140     0.7060    -0.7670 ha         1 8ZN       0.157000
     50 H15          2.5900     3.5680    -0.4780 ha         1 8ZN       0.128000
     51 H16          0.5520     2.7990     0.4090 hn         1 8ZN       0.511000
     52 H17         -1.9530    -1.2330    -1.6420 h4         1 8ZN       0.063100
     53 H18         -4.4600     1.9970     0.2750 hn         1 8ZN       0.158000
     54 H19         -9.0930     1.5810    -2.2880 ha         1 8ZN       0.133000
     55 H20        -10.2670     1.7720    -0.1000 ha         1 8ZN       0.121000
     56 H21         -8.9680     1.7650     2.0130 ha         1 8ZN       0.118000
     57 H22         -5.5530     2.3690     2.3890 hc         1 8ZN       0.046033
     58 H23         -6.9280     1.6320     3.2180 hc         1 8ZN       0.046033
     59 H24         -5.7000     0.6040     2.4730 hc         1 8ZN       0.046033
@<TRIPOS>BOND
     1     1     2 1   
     2     1     6 1   
     3     1    37 1   
     4     1    38 1   
     5     2     3 1   
     6     2    39 1   
     7     2    40 1   
     8     3     4 1   
     9     3    41 1   
    10     4     5 1   
    11     4    42 1   
    12     4    43 1   
    13     5     6 1   
    14     5    44 1   
    15     5    45 1   
    16     6     7 1   
    17     6    46 1   
    18     7     8 1   
    19     7    47 1   
    20     8     9 2   
    21     8    10 1   
    22    10    11 ar  
    23    10    12 ar  
    24    11    19 ar  
    25    11    48 1   
    26    12    13 ar  
    27    12    49 1   
    28    13    14 1   
    29    13    18 ar  
    30    14    15 1   
    31    14    16 1   
    32    14    17 1   
    33    18    19 ar  
    34    18    50 1   
    35    19    20 1   
    36    20    21 1   
    37    20    51 1   
    38    21    22 1   
    39    21    23 2   
    40    22    25 1   
    41    23    24 1   
    42    24    25 2   
    43    24    52 1   
    44    25    26 1   
    45    26    27 2   
    46    26    28 1   
    47    28    29 1   
    48    28    53 1   
    49    29    30 ar  
    50    29    35 ar  
    51    30    31 1   
    52    30    32 ar  
    53    32    33 ar  
    54    32    54 1   
    55    33    34 ar  
    56    33    55 1   
    57    34    35 ar  
    58    34    56 1   
    59    35    36 1   
    60    36    57 1   
    61    36    58 1   
    62    36    59 1   
@<TRIPOS>SUBSTRUCTURE
     1 8ZN         1 TEMP              0 ****  ****    0 ROOT
