@<TRIPOS>MOLECULE
8ZN
   59    62     1     0     0
SMALL
bcc


@<TRIPOS>ATOM
      1 CAW          3.0360    -4.7280    -0.9530 c6         1 8ZN      -0.130900
      2 CAX          3.2620    -6.2080    -0.6450 c6         1 8ZN       0.152300
      3 NAY          2.8980    -6.5970     0.7060 n7         1 8ZN      -0.791200
      4 CAZ          3.5490    -5.7600     1.7000 c6         1 8ZN       0.152300
      5 CBA          3.3340    -4.2610     1.4860 c6         1 8ZN      -0.130900
      6 CAV          3.7560    -3.8610     0.0740 c6         1 8ZN       0.115700
      7 NAU          3.4950    -2.4570    -0.1930 ns         1 8ZN      -0.566900
      8 CAT          4.3190    -1.4700     0.1850 c          1 8ZN       0.679700
      9 OBB          5.3990    -1.6650     0.7250 o          1 8ZN      -0.596100
     10 CAS          3.8560    -0.0730    -0.1090 ca         1 8ZN      -0.125600
     11 CBC          2.5050     0.2530    -0.1470 ca         1 8ZN      -0.108000
     12 CAR          4.8260     0.9000    -0.2970 ca         1 8ZN      -0.056000
     13 CAM          4.4300     2.2050    -0.5550 ca         1 8ZN      -0.174300
     14 CAN          5.4710     3.2500    -0.8250 c3         1 8ZN       0.722200
     15 FAP          5.8370     3.2530    -2.1150 f          1 8ZN      -0.231967
     16 FAQ          5.0400     4.4830    -0.5400 f          1 8ZN      -0.231967
     17 FAO          6.5820     3.0460    -0.1110 f          1 8ZN      -0.231967
     18 CAL          3.0900     2.5420    -0.6120 ca         1 8ZN      -0.125000
     19 CAK          2.1140     1.5670    -0.4000 ca         1 8ZN       0.153600
     20 NAJ          0.7910     1.9900    -0.4500 nu         1 8ZN      -0.727300
     21 CAI         -0.3390     1.2640    -0.3020 cc         1 8ZN       0.730300
     22 SBD         -1.8800     2.0560    -0.4690 ss         1 8ZN      -0.229300
     23 NAH         -0.4080    -0.0100    -0.0450 nd         1 8ZN      -0.737000
     24 CAG         -1.6970    -0.4160     0.0400 cd         1 8ZN       0.459200
     25 CAF         -2.6540     0.5330    -0.1460 cc         1 8ZN      -0.248000
     26 CAE         -4.1000     0.2970    -0.0780 c          1 8ZN       0.727700
     27 OBE         -4.5480    -0.8310     0.0190 o          1 8ZN      -0.566100
     28 NAD         -4.8950     1.3980    -0.1290 ns         1 8ZN      -0.491100
     29 CAC         -6.2990     1.3070    -0.0590 ca         1 8ZN       0.048600
     30 CAB         -7.0300     0.7910    -1.1270 ca         1 8ZN       0.042400
     31 CL          -6.2100     0.2790    -2.5580 cl         1 8ZN      -0.091400
     32 CBJ         -8.4110     0.7010    -1.0750 ca         1 8ZN      -0.118000
     33 CBI         -9.0700     1.1480     0.0580 ca         1 8ZN      -0.115000
     34 CBH         -8.3550     1.6760     1.1220 ca         1 8ZN      -0.121000
     35 CBF         -6.9660     1.7560     1.0840 ca         1 8ZN      -0.074300
     36 CBG         -6.1970     2.3220     2.2400 c3         1 8ZN      -0.048800
     37 H1           3.3890    -4.4950    -1.9600 hc         1 8ZN       0.051200
     38 H2           1.9610    -4.5120    -0.9280 hc         1 8ZN       0.051200
     39 H3           2.7030    -6.8230    -1.3530 h1         1 8ZN       0.056200
     40 H4           4.3210    -6.4470    -0.7950 h1         1 8ZN       0.056200
     41 H5           1.8930    -6.5160     0.8140 hn         1 8ZN       0.348800
     42 H7           3.1950    -6.0500     2.6910 h1         1 8ZN       0.056200
     43 H8           4.6220    -5.9770     1.6770 h1         1 8ZN       0.056200
     44 H9           2.2770    -4.0150     1.6280 hc         1 8ZN       0.051200
     45 H10          3.9000    -3.6920     2.2270 hc         1 8ZN       0.051200
     46 H11          4.8340    -4.0210    -0.0310 h1         1 8ZN       0.077700
     47 H12          2.6510    -2.2310    -0.6940 hn         1 8ZN       0.319500
     48 H13          1.7480    -0.4910     0.0450 ha         1 8ZN       0.178000
     49 H14          5.8720     0.6310    -0.2410 ha         1 8ZN       0.175000
     50 H15          2.7830     3.5600    -0.8160 ha         1 8ZN       0.146000
     51 H16          0.6660     2.9750    -0.6290 hn         1 8ZN       0.455800
     52 H17         -1.9130    -1.4530     0.2550 h4         1 8ZN       0.063100
     53 H18         -4.4920     2.3200    -0.0520 hn         1 8ZN       0.324500
     54 H19         -8.9610     0.2940    -1.9130 ha         1 8ZN       0.151000
     55 H20        -10.1490     1.0860     0.1080 ha         1 8ZN       0.139000
     56 H21         -8.8790     2.0250     2.0020 ha         1 8ZN       0.136000
     57 H22         -5.7500     3.2860     1.9900 hc         1 8ZN       0.046033
     58 H23         -6.8510     2.4780     3.0960 hc         1 8ZN       0.046033
     59 H24         -5.3870     1.6620     2.5510 hc         1 8ZN       0.046033
@<TRIPOS>BOND
     1     1     2 1   
     2     1     6 1   
     3     1    37 1   
     4     1    38 1   
     5     2     3 1   
     6     2    39 1   
     7     2    40 1   
     8     3     4 1   
     9     3    41 1   
    10     4     5 1   
    11     4    42 1   
    12     4    43 1   
    13     5     6 1   
    14     5    44 1   
    15     5    45 1   
    16     6     7 1   
    17     6    46 1   
    18     7     8 1   
    19     7    47 1   
    20     8     9 2   
    21     8    10 1   
    22    10    11 ar  
    23    10    12 ar  
    24    11    19 ar  
    25    11    48 1   
    26    12    13 ar  
    27    12    49 1   
    28    13    14 1   
    29    13    18 ar  
    30    14    15 1   
    31    14    16 1   
    32    14    17 1   
    33    18    19 ar  
    34    18    50 1   
    35    19    20 1   
    36    20    21 1   
    37    20    51 1   
    38    21    22 1   
    39    21    23 2   
    40    22    25 1   
    41    23    24 1   
    42    24    25 2   
    43    24    52 1   
    44    25    26 1   
    45    26    27 2   
    46    26    28 1   
    47    28    29 1   
    48    28    53 1   
    49    29    30 ar  
    50    29    35 ar  
    51    30    31 1   
    52    30    32 ar  
    53    32    33 ar  
    54    32    54 1   
    55    33    34 ar  
    56    33    55 1   
    57    34    35 ar  
    58    34    56 1   
    59    35    36 1   
    60    36    57 1   
    61    36    58 1   
    62    36    59 1   
@<TRIPOS>SUBSTRUCTURE
     1 8ZN         1 TEMP              0 ****  ****    0 ROOT
