@<TRIPOS>MOLECULE
8ZP
   48    51     1     0     0
SMALL
No Charge or Current Charge


@<TRIPOS>ATOM
      1 C10         -4.1250    -2.0270    -0.6870 ca         1 8ZP      -0.079000
      2 C13          0.2350     0.7940    -0.0750 cc         1 8ZP      -0.177200
      3 C17          3.6000    -1.9890    -1.3720 c6         1 8ZP      -0.087400
      4 C20          5.3840     0.3000    -0.7010 c6         1 8ZP      -0.053400
      5 C21          4.8060    -0.6310     0.4090 c6         1 8ZP      -0.209700
      6 C22          4.7430     0.0720     1.7850 c          1 8ZP       0.716000
      7 C26          0.7460     2.1320    -0.0920 cc         1 8ZP      -0.156000
      8 C02         -2.7540     2.6960    -0.1190 cc         1 8ZP       0.167100
      9 C03         -3.6850     1.6760    -0.1070 cd         1 8ZP      -0.314000
     10 C04         -3.3010     0.2740    -0.0720 cd         1 8ZP       0.439500
     11 C05         -4.3460    -0.7760    -0.0620 ca         1 8ZP      -0.139500
     12 C06         -5.5560    -0.5800     0.6430 ca         1 8ZP      -0.079000
     13 C07         -6.5340    -1.5890     0.6850 ca         1 8ZP      -0.125000
     14 C08         -6.3120    -2.8150     0.0380 ca         1 8ZP      -0.107000
     15 C09         -5.1050    -3.0340    -0.6440 ca         1 8ZP      -0.125000
     16 N11         -1.9840    -0.1860    -0.0660 nd         1 8ZP      -0.619000
     17 C12         -1.1340     0.8980    -0.0780 cd         1 8ZP       0.414500
     18 N15          2.3900    -0.2370    -0.0690 ns         1 8ZP      -0.482900
     19 C16          3.4410    -1.2580    -0.0070 c6         1 8ZP       0.132700
     20 C18          4.1570    -1.0590    -2.4800 c6         1 8ZP      -0.065400
     21 C19          5.5090    -0.4400    -2.0540 c6         1 8ZP      -0.077400
     22 O23          4.1120     1.1140     1.8820 o          1 8ZP      -0.733000
     23 O24          5.3830    -0.4170     2.7040 o          1 8ZP      -0.733000
     24 O25          0.5790    -1.5950    -0.0350 o          1 8ZP      -0.633100
     25 C27         -0.2950     3.0310    -0.1080 cd         1 8ZP      -0.243100
     26 N28         -1.4510     2.2420    -0.0990 na         1 8ZP      -0.069400
     27 H101        -3.1970    -2.2190    -1.2210 ha         1 8ZP       0.131000
     28 H172         4.2760    -2.8460    -1.2460 hc         1 8ZP       0.037700
     29 H171         2.6380    -2.4090    -1.6920 hc         1 8ZP       0.037700
     30 H201         4.7470     1.1860    -0.8270 hc         1 8ZP       0.038200
     31 H202         6.3720     0.6730    -0.3960 hc         1 8ZP       0.038200
     32 H211         5.5010    -1.4740     0.5310 hc         1 8ZP       0.042700
     33 H261         1.8000     2.4090    -0.0920 ha         1 8ZP       0.220000
     34 H011        -4.0010     4.1030    -0.1680 ho         1 8ZP       0.489000
     35 H031        -4.7370     1.9300    -0.1390 ha         1 8ZP       0.123000
     36 H061        -5.7420     0.3520     1.1730 ha         1 8ZP       0.131000
     37 H071        -7.4620    -1.4230     1.2270 ha         1 8ZP       0.108500
     38 H081        -7.0690    -3.5950     0.0730 ha         1 8ZP       0.104000
     39 H091        -4.9270    -3.9860    -1.1390 ha         1 8ZP       0.108500
     40 H151         2.6840     0.7270    -0.0090 hn         1 8ZP       0.351500
     41 H161         3.1480    -1.9950     0.7560 h1         1 8ZP       0.063700
     42 H181         4.2860    -1.6270    -3.4110 hc         1 8ZP       0.023200
     43 H182         3.4350    -0.2610    -2.7000 hc         1 8ZP       0.023200
     44 H192         5.8620     0.2540    -2.8280 hc         1 8ZP       0.017200
     45 H191         6.2680    -1.2310    -1.9740 hc         1 8ZP       0.017200
     46 H271        -0.3090     4.1180    -0.1240 h4         1 8ZP       0.224000
     47 O01         -3.0240     4.0140    -0.1550 oh         1 8ZP      -0.527100
     48 C14          1.0340    -0.4590    -0.0580 c          1 8ZP       0.633300
@<TRIPOS>BOND
     1     1    11 ar  
     2     1    15 ar  
     3     1    27 1   
     4     2     7 1   
     5     2    17 2   
     6     2    48 1   
     7     3    19 1   
     8     3    20 1   
     9     3    28 1   
    10     3    29 1   
    11     4     5 1   
    12     4    21 1   
    13     4    30 1   
    14     4    31 1   
    15     5     6 1   
    16     5    19 1   
    17     5    32 1   
    18     6    22 1   
    19     6    23 1   
    20     7    25 2   
    21     7    33 1   
    22     8     9 2   
    23     8    26 1   
    24     8    47 1   
    25     9    10 1   
    26     9    35 1   
    27    10    11 1   
    28    10    16 2   
    29    11    12 ar  
    30    12    13 ar  
    31    12    36 1   
    32    13    14 ar  
    33    13    37 1   
    34    14    15 ar  
    35    14    38 1   
    36    15    39 1   
    37    16    17 1   
    38    17    26 1   
    39    18    19 1   
    40    18    40 1   
    41    18    48 1   
    42    19    41 1   
    43    20    21 1   
    44    20    42 1   
    45    20    43 1   
    46    21    44 1   
    47    21    45 1   
    48    24    48 2   
    49    25    26 1   
    50    25    46 1   
    51    34    47 1   
@<TRIPOS>SUBSTRUCTURE
     1 8ZP         1 TEMP              0 ****  ****    0 ROOT
