@<TRIPOS>MOLECULE
8ZP
   48    51     1     0     0
SMALL
bcc


@<TRIPOS>ATOM
      1 C10         -3.8990    -2.0810    -0.1570 ca         1 8ZP      -0.097000
      2 C13          0.2600     0.8610    -0.3840 cc         1 8ZP      -0.177200
      3 C17          3.6000    -1.8250    -1.6440 c6         1 8ZP      -0.087400
      4 C20          5.3530     0.2010    -0.4480 c6         1 8ZP      -0.053400
      5 C21          4.6350    -0.8280     0.4270 c6         1 8ZP      -0.209700
      6 C22          4.3440    -0.3200     1.8520 c          1 8ZP       0.926600
      7 C26          0.7280     2.1990    -0.4500 cc         1 8ZP      -0.106000
      8 C02         -2.7650     2.6560    -0.1530 cc         1 8ZP       0.217800
      9 C03         -3.7180     1.6860    -0.0440 cd         1 8ZP      -0.397300
     10 C04         -3.3090     0.3280    -0.0310 cd         1 8ZP       0.504800
     11 C05         -4.2960    -0.7660     0.0990 ca         1 8ZP      -0.139500
     12 C06         -5.6170    -0.5300     0.4800 ca         1 8ZP      -0.097000
     13 C07         -6.5180    -1.5780     0.6000 ca         1 8ZP      -0.143000
     14 C08         -6.1140    -2.8800     0.3400 ca         1 8ZP      -0.125000
     15 C09         -4.8000    -3.1270    -0.0400 ca         1 8ZP      -0.143000
     16 N11         -2.0520    -0.0220    -0.1390 nd         1 8ZP      -0.619000
     17 C12         -1.1250     0.9270    -0.2630 cd         1 8ZP       0.414500
     18 N15          2.3680    -0.2190    -0.2170 ns         1 8ZP      -0.549900
     19 C16          3.3280    -1.3110    -0.2280 c6         1 8ZP       0.132700
     20 C18          4.3140    -0.7940    -2.5090 c6         1 8ZP      -0.065400
     21 C19          5.6100    -0.3340    -1.8530 c6         1 8ZP      -0.077400
     22 O23          4.0430     0.8910     1.9680 o          1 8ZP      -0.838300
     23 O24          4.3880    -1.1570     2.7740 o          1 8ZP      -0.838300
     24 O25          0.5500    -1.4620    -0.7330 o          1 8ZP      -0.633100
     25 C27         -0.3330     3.0550    -0.3730 cd         1 8ZP      -0.193100
     26 N28         -1.4650     2.2840    -0.2550 na         1 8ZP      -0.120100
     27 H101        -2.8750    -2.2760    -0.4470 ha         1 8ZP       0.149000
     28 H172         4.2230    -2.7220    -1.5570 hc         1 8ZP       0.037700
     29 H171         2.6660    -2.1440    -2.1090 hc         1 8ZP       0.037700
     30 H201         4.7690     1.1230    -0.5120 hc         1 8ZP       0.038200
     31 H202         6.2980     0.4780     0.0270 hc         1 8ZP       0.038200
     32 H211         5.2730    -1.7150     0.4990 hc         1 8ZP       0.042700
     33 H261         1.7520     2.5180    -0.5740 ha         1 8ZP       0.170000
     34 H011        -3.8920     4.1780    -0.0950 ho         1 8ZP       0.450000
     35 H031        -4.7570     1.9760     0.0180 ha         1 8ZP       0.141000
     36 H061        -5.9600     0.4720     0.7050 ha         1 8ZP       0.149000
     37 H071        -7.5370    -1.3740     0.9020 ha         1 8ZP       0.126500
     38 H081        -6.8170    -3.6970     0.4330 ha         1 8ZP       0.122000
     39 H091        -4.4750    -4.1380    -0.2450 ha         1 8ZP       0.126500
     40 H151         2.6740     0.6300     0.2380 hn         1 8ZP       0.351500
     41 H161         2.9320    -2.1390     0.3710 h1         1 8ZP       0.063700
     42 H181         4.5150    -1.2180    -3.4970 hc         1 8ZP       0.023200
     43 H182         3.6580     0.0670    -2.6710 hc         1 8ZP       0.023200
     44 H192         6.0960     0.4320    -2.4640 hc         1 8ZP       0.017200
     45 H191         6.3070    -1.1770    -1.8010 hc         1 8ZP       0.017200
     46 H271        -0.3720     4.1290    -0.4040 h4         1 8ZP       0.174000
     47 O01         -2.9540     3.9600    -0.1780 oh         1 8ZP      -0.488100
     48 C14          1.0510    -0.3770    -0.4590 c          1 8ZP       0.700300
@<TRIPOS>BOND
     1     1    11 ar  
     2     1    15 ar  
     3     1    27 1   
     4     2     7 1   
     5     2    17 2   
     6     2    48 1   
     7     3    19 1   
     8     3    20 1   
     9     3    28 1   
    10     3    29 1   
    11     4     5 1   
    12     4    21 1   
    13     4    30 1   
    14     4    31 1   
    15     5     6 1   
    16     5    19 1   
    17     5    32 1   
    18     6    22 1   
    19     6    23 1   
    20     7    25 2   
    21     7    33 1   
    22     8     9 2   
    23     8    26 1   
    24     8    47 1   
    25     9    10 1   
    26     9    35 1   
    27    10    11 1   
    28    10    16 2   
    29    11    12 ar  
    30    12    13 ar  
    31    12    36 1   
    32    13    14 ar  
    33    13    37 1   
    34    14    15 ar  
    35    14    38 1   
    36    15    39 1   
    37    16    17 1   
    38    17    26 1   
    39    18    19 1   
    40    18    40 1   
    41    18    48 1   
    42    19    41 1   
    43    20    21 1   
    44    20    42 1   
    45    20    43 1   
    46    21    44 1   
    47    21    45 1   
    48    24    48 2   
    49    25    26 1   
    50    25    46 1   
    51    34    47 1   
@<TRIPOS>SUBSTRUCTURE
     1 8ZP         1 TEMP              0 ****  ****    0 ROOT
