@<TRIPOS>MOLECULE
8ZQ
   68    72     1     0     0
SMALL
bcc


@<TRIPOS>ATOM
      1 CAZ         -5.9340    -3.8840     0.6270 c6         1 8ZQ      -0.130900
      2 CBA         -7.1400    -4.8040     0.8140 c6         1 8ZQ       0.150800
      3 NBB         -8.0990    -4.7540    -0.2770 n7         1 8ZQ      -0.788200
      4 CBC         -8.5300    -3.3930    -0.5510 c6         1 8ZQ       0.150800
      5 CBD         -7.3800    -2.4150    -0.7940 c6         1 8ZQ      -0.130900
      6 CAY         -6.3940    -2.4530     0.3720 c6         1 8ZQ       0.111700
      7 NAX         -5.2450    -1.5950     0.1540 ns         1 8ZQ      -0.569900
      8 CAW         -5.2140    -0.2960     0.4890 c          1 8ZQ       0.680700
      9 OBE         -6.1630     0.2930     0.9890 o          1 8ZQ      -0.596100
     10 CAV         -3.9230     0.4190     0.2310 ca         1 8ZQ      -0.123600
     11 CBF         -2.7020    -0.2360     0.2710 ca         1 8ZQ      -0.168000
     12 CAU         -3.9640     1.7920     0.0090 ca         1 8ZQ      -0.096000
     13 CAM         -2.7890     2.5040    -0.2020 cp         1 8ZQ      -0.009000
     14 CAN         -2.8500     3.9540    -0.4940 cp         1 8ZQ      -0.120000
     15 CAO         -3.6750     4.4030    -1.5230 ca         1 8ZQ      -0.073000
     16 CAP         -3.7820     5.7460    -1.8480 ca         1 8ZQ      -0.178000
     17 CAQ         -3.0470     6.6690    -1.1140 ca         1 8ZQ      -0.078000
     18 CAR         -2.2300     6.2510    -0.0790 ca         1 8ZQ      -0.204000
     19 CAS         -2.1110     4.8940     0.2530 ca         1 8ZQ       0.179600
     20 NAT         -1.2610     4.5140     1.2670 nv         1 8ZQ      -0.823200
     21 CAL         -1.5610     1.8410    -0.1670 ca         1 8ZQ      -0.124000
     22 CAK         -1.5140     0.4710     0.0760 ca         1 8ZQ       0.151600
     23 NAJ         -0.3360    -0.2730     0.1310 nu         1 8ZQ      -0.728300
     24 CAI          0.9430     0.1540     0.1160 cc         1 8ZQ       0.738300
     25 SBG          2.2250    -1.0220     0.2200 ss         1 8ZQ      -0.261300
     26 NAH          1.3470     1.3890     0.0310 nd         1 8ZQ      -0.722000
     27 CAG          2.6990     1.4580     0.0560 cd         1 8ZQ       0.466200
     28 CAF          3.3750     0.2810     0.1520 cc         1 8ZQ      -0.251000
     29 CAE          4.8350     0.1480     0.2050 c          1 8ZQ       0.730700
     30 OBH          5.5550     1.1320     0.2160 o          1 8ZQ      -0.572100
     31 NAD          5.3290    -1.1150     0.2440 ns         1 8ZQ      -0.496100
     32 CAC          6.7120    -1.3750     0.3300 ca         1 8ZQ       0.049600
     33 CAB          7.5400    -1.1840    -0.7730 ca         1 8ZQ       0.041400
     34 CL           6.8600    -0.6400    -2.2650 cl         1 8ZQ      -0.092400
     35 CBM          8.9000    -1.4380    -0.7050 ca         1 8ZQ      -0.120000
     36 CBL          9.4330    -1.9040     0.4870 ca         1 8ZQ      -0.114000
     37 CBK          8.6170    -2.1110     1.5880 ca         1 8ZQ      -0.124000
     38 CBI          7.2530    -1.8440     1.5300 ca         1 8ZQ      -0.067300
     39 CBJ          6.3720    -2.0510     2.7260 c3         1 8ZQ      -0.046800
     40 H1          -5.2900    -3.9220     1.5100 hc         1 8ZQ       0.049450
     41 H2          -5.3380    -4.2360    -0.2220 hc         1 8ZQ       0.049450
     42 H3          -6.8030    -5.8350     0.9420 h1         1 8ZQ       0.056450
     43 H4          -7.6590    -4.5290     1.7380 h1         1 8ZQ       0.056450
     44 H5          -7.6650    -5.1330    -1.1110 hn         1 8ZQ       0.346800
     45 H7          -9.2000    -3.4010    -1.4120 h1         1 8ZQ       0.056450
     46 H8          -9.1240    -3.0460     0.3010 h1         1 8ZQ       0.056450
     47 H9          -6.8590    -2.6860    -1.7180 hc         1 8ZQ       0.049450
     48 H10         -7.7680    -1.4020    -0.9260 hc         1 8ZQ       0.049450
     49 H11         -6.9020    -2.0900     1.2700 h1         1 8ZQ       0.081700
     50 H12         -4.4870    -1.9770    -0.3880 hn         1 8ZQ       0.310500
     51 H13         -2.6490    -1.2970     0.4880 ha         1 8ZQ       0.126000
     52 H14         -4.9150     2.3080     0.0020 ha         1 8ZQ       0.161000
     53 H15         -4.2370     3.6710    -2.0920 ha         1 8ZQ       0.129000
     54 H16         -4.4210     6.0640    -2.6600 ha         1 8ZQ       0.134000
     55 H17         -3.1110     7.7250    -1.3450 ha         1 8ZQ       0.129000
     56 H18         -1.6680     6.9810     0.4910 ha         1 8ZQ       0.130000
     57 H19         -1.4520     3.6320     1.7130 hn         1 8ZQ       0.398800
     58 H20         -1.0430     5.2330     1.9390 hn         1 8ZQ       0.398800
     59 H21         -0.6480     2.3920    -0.3300 ha         1 8ZQ       0.188000
     60 H22         -0.4690    -1.2690     0.2260 hn         1 8ZQ       0.448800
     61 H23          3.1810     2.4240    -0.0020 h4         1 8ZQ       0.065100
     62 H24          4.7090    -1.9100     0.2550 hn         1 8ZQ       0.324500
     63 H25          9.5300    -1.2800    -1.5690 ha         1 8ZQ       0.150000
     64 H26         10.4930    -2.1080     0.5520 ha         1 8ZQ       0.137000
     65 H27          9.0460    -2.4760     2.5120 ha         1 8ZQ       0.136000
     66 H28          5.6070    -2.8070     2.5410 hc         1 8ZQ       0.045700
     67 H29          6.9580    -2.3810     3.5820 hc         1 8ZQ       0.045700
     68 H30          5.8560    -1.1320     3.0060 hc         1 8ZQ       0.045700
@<TRIPOS>BOND
     1     1     2 1   
     2     1     6 1   
     3     1    40 1   
     4     1    41 1   
     5     2     3 1   
     6     2    42 1   
     7     2    43 1   
     8     3     4 1   
     9     3    44 1   
    10     4     5 1   
    11     4    45 1   
    12     4    46 1   
    13     5     6 1   
    14     5    47 1   
    15     5    48 1   
    16     6     7 1   
    17     6    49 1   
    18     7     8 1   
    19     7    50 1   
    20     8     9 2   
    21     8    10 1   
    22    10    11 ar  
    23    10    12 ar  
    24    11    22 ar  
    25    11    51 1   
    26    12    13 ar  
    27    12    52 1   
    28    13    14 1   
    29    13    21 ar  
    30    14    15 ar  
    31    14    19 ar  
    32    15    16 ar  
    33    15    53 1   
    34    16    17 ar  
    35    16    54 1   
    36    17    18 ar  
    37    17    55 1   
    38    18    19 ar  
    39    18    56 1   
    40    19    20 1   
    41    20    57 1   
    42    20    58 1   
    43    21    22 ar  
    44    21    59 1   
    45    22    23 1   
    46    23    24 1   
    47    23    60 1   
    48    24    25 1   
    49    24    26 2   
    50    25    28 1   
    51    26    27 1   
    52    27    28 2   
    53    27    61 1   
    54    28    29 1   
    55    29    30 2   
    56    29    31 1   
    57    31    32 1   
    58    31    62 1   
    59    32    33 ar  
    60    32    38 ar  
    61    33    34 1   
    62    33    35 ar  
    63    35    36 ar  
    64    35    63 1   
    65    36    37 ar  
    66    36    64 1   
    67    37    38 ar  
    68    37    65 1   
    69    38    39 1   
    70    39    66 1   
    71    39    67 1   
    72    39    68 1   
@<TRIPOS>SUBSTRUCTURE
     1 8ZQ         1 TEMP              0 ****  ****    0 ROOT
