@<TRIPOS>MOLECULE
8ZQ
   68    72     1     0     0
SMALL
No Charge or Current Charge


@<TRIPOS>ATOM
      1 CAZ         -5.6780    -3.7360     1.3480 c6         1 8ZQ      -0.130900
      2 CBA         -6.8100    -4.7670     1.5680 c6         1 8ZQ       0.150800
      3 NBB         -7.4640    -5.1110     0.2820 n7         1 8ZQ      -0.843400
      4 CBC         -8.0190    -3.9240    -0.4130 c6         1 8ZQ       0.150800
      5 CBD         -6.9140    -2.8750    -0.6740 c6         1 8ZQ      -0.130900
      6 CAY         -6.2150    -2.4660     0.6470 c6         1 8ZQ       0.111700
      7 NAX         -5.1170    -1.5300     0.3850 ns         1 8ZQ      -0.502900
      8 CAW         -5.2430    -0.1700     0.2030 c          1 8ZQ       0.613700
      9 OBE         -6.3350     0.3790     0.2730 o          1 8ZQ      -0.596100
     10 CAV         -3.9670     0.5990    -0.0830 ca         1 8ZQ      -0.123600
     11 CBF         -2.7010    -0.0340    -0.1670 ca         1 8ZQ      -0.150000
     12 CAU         -4.0290     1.9980    -0.2730 ca         1 8ZQ      -0.078000
     13 CAM         -2.8730     2.7670    -0.5410 cp         1 8ZQ      -0.009000
     14 CAN         -2.9790     4.2450    -0.7620 cp         1 8ZQ      -0.120000
     15 CAO         -3.9500     4.7390    -1.6710 ca         1 8ZQ      -0.055000
     16 CAP         -4.0870     6.1150    -1.9100 ca         1 8ZQ      -0.160000
     17 CAQ         -3.2600     7.0300    -1.2440 ca         1 8ZQ      -0.060000
     18 CAR         -2.2980     6.5640    -0.3340 ca         1 8ZQ      -0.186000
     19 CAS         -2.1530     5.1900    -0.0880 ca         1 8ZQ       0.318000
     20 NAT         -1.2180     4.7970     0.8330 nv         1 8ZQ      -1.072000
     21 CAL         -1.6320     2.0950    -0.6280 ca         1 8ZQ      -0.106000
     22 CAK         -1.5390     0.7090    -0.4280 ca         1 8ZQ       0.290000
     23 NAJ         -0.3180     0.0410    -0.5180 nu         1 8ZQ      -0.921900
     24 CAI          0.9350     0.3400    -0.0800 cc         1 8ZQ       0.738300
     25 SBG          2.2870    -0.7420    -0.2810 ss         1 8ZQ      -0.116400
     26 NAH          1.1560     1.4650     0.5640 nd         1 8ZQ      -0.722000
     27 CAG          2.4940     1.5370     0.9320 cd         1 8ZQ       0.400900
     28 CAF          3.2440     0.4480     0.5620 cc         1 8ZQ      -0.330600
     29 CAE          4.6790     0.3440     0.8610 c          1 8ZQ       0.663700
     30 OBH          5.3010     1.2060     1.4690 o          1 8ZQ      -0.572100
     31 NAD          5.2450    -0.8340     0.4100 ns         1 8ZQ      -0.170000
     32 CAC          6.5940    -1.2730     0.4590 ca         1 8ZQ      -0.043000
     33 CAB          7.6450    -0.5050    -0.1030 ca         1 8ZQ       0.133000
     34 Cl           7.3360     1.0030    -0.9670 cl         1 8ZQ      -0.184000
     35 CBM          8.9690    -0.9680    -0.0380 ca         1 8ZQ      -0.102000
     36 CBL          9.2600    -2.1960     0.5740 ca         1 8ZQ      -0.096000
     37 CBK          8.2210    -2.9730     1.1110 ca         1 8ZQ      -0.106000
     38 CBI          6.8870    -2.5240     1.0530 ca         1 8ZQ      -0.067300
     39 CBJ          5.7780    -3.3880     1.6480 c3         1 8ZQ      -0.046800
     40 H1          -5.2330    -3.4690     2.3160 hc         1 8ZQ       0.049450
     41 H2          -4.8770    -4.1910     0.7490 hc         1 8ZQ       0.049450
     42 H3          -6.3970    -5.6770     2.0300 h1         1 8ZQ       0.056450
     43 H4          -7.5550    -4.3530     2.2640 h1         1 8ZQ       0.056450
     44 H5          -6.7600    -5.5420    -0.3310 hn         1 8ZQ       0.402000
     45 H7          -8.4710    -4.2310    -1.3690 h1         1 8ZQ       0.056450
     46 H8          -8.8160    -3.4750     0.2000 h1         1 8ZQ       0.056450
     47 H9          -6.1780    -3.2800    -1.3810 hc         1 8ZQ       0.049450
     48 H10         -7.3560    -1.9910    -1.1540 hc         1 8ZQ       0.049450
     49 H11         -6.9480    -1.9770     1.3080 h1         1 8ZQ       0.081700
     50 H12         -4.1810    -1.9060     0.3160 hn         1 8ZQ       0.310500
     51 H13         -2.6060    -1.1060    -0.0260 ha         1 8ZQ       0.108000
     52 H14         -4.9890     2.5060    -0.2070 ha         1 8ZQ       0.143000
     53 H15         -4.5950     4.0420    -2.2020 ha         1 8ZQ       0.111000
     54 H16         -4.8350     6.4720    -2.6150 ha         1 8ZQ       0.116000
     55 H17         -3.3650     8.0980    -1.4280 ha         1 8ZQ       0.111000
     56 H18         -1.6650     7.2790     0.1850 ha         1 8ZQ       0.112000
     57 H19         -1.1550     3.8200     1.1060 hn         1 8ZQ       0.454000
     58 H20         -0.7300     5.4880     1.3980 hn         1 8ZQ       0.454000
     59 H21         -0.7380     2.6580    -0.8740 ha         1 8ZQ       0.170000
     60 H22         -0.3880    -0.9430    -0.7590 hn         1 8ZQ       0.504000
     61 H23          2.8560     2.4070     1.4690 h4         1 8ZQ       0.065100
     62 H24          4.5970    -1.4850    -0.0150 hn         1 8ZQ       0.158000
     63 H25          9.7700    -0.3770    -0.4750 ha         1 8ZQ       0.132000
     64 H26         10.2870    -2.5520     0.6210 ha         1 8ZQ       0.119000
     65 H27          8.4570    -3.9290     1.5750 ha         1 8ZQ       0.118000
     66 H28          5.0480    -3.6740     0.8820 hc         1 8ZQ       0.045700
     67 H29          6.1720    -4.3130     2.0860 hc         1 8ZQ       0.045700
     68 H30          5.2430    -2.8530     2.4410 hc         1 8ZQ       0.045700
@<TRIPOS>BOND
     1     1     2 1   
     2     1     6 1   
     3     1    40 1   
     4     1    41 1   
     5     2     3 1   
     6     2    42 1   
     7     2    43 1   
     8     3     4 1   
     9     3    44 1   
    10     4     5 1   
    11     4    45 1   
    12     4    46 1   
    13     5     6 1   
    14     5    47 1   
    15     5    48 1   
    16     6     7 1   
    17     6    49 1   
    18     7     8 1   
    19     7    50 1   
    20     8     9 2   
    21     8    10 1   
    22    10    11 ar  
    23    10    12 ar  
    24    11    22 ar  
    25    11    51 1   
    26    12    13 ar  
    27    12    52 1   
    28    13    14 1   
    29    13    21 ar  
    30    14    15 ar  
    31    14    19 ar  
    32    15    16 ar  
    33    15    53 1   
    34    16    17 ar  
    35    16    54 1   
    36    17    18 ar  
    37    17    55 1   
    38    18    19 ar  
    39    18    56 1   
    40    19    20 1   
    41    20    57 1   
    42    20    58 1   
    43    21    22 ar  
    44    21    59 1   
    45    22    23 1   
    46    23    24 1   
    47    23    60 1   
    48    24    25 1   
    49    24    26 2   
    50    25    28 1   
    51    26    27 1   
    52    27    28 2   
    53    27    61 1   
    54    28    29 1   
    55    29    30 2   
    56    29    31 1   
    57    31    32 1   
    58    31    62 1   
    59    32    33 ar  
    60    32    38 ar  
    61    33    34 1   
    62    33    35 ar  
    63    35    36 ar  
    64    35    63 1   
    65    36    37 ar  
    66    36    64 1   
    67    37    38 ar  
    68    37    65 1   
    69    38    39 1   
    70    39    66 1   
    71    39    67 1   
    72    39    68 1   
@<TRIPOS>SUBSTRUCTURE
     1 8ZQ         1 TEMP              0 ****  ****    0 ROOT
