@<TRIPOS>MOLECULE
8ZS
   40    42     1     0     0
SMALL
bcc


@<TRIPOS>ATOM
      1 C10         -2.9160     2.0340     0.1370 ca         1 8ZS      -0.091500
      2 C13          1.3440    -0.7610    -0.1220 cc         1 8ZS      -0.226200
      3 C17          5.6160     1.1600    -0.8260 c3         1 8ZS       0.124400
      4 C21          1.8640    -2.0810    -0.0610 cc         1 8ZS      -0.123000
      5 C22          0.8350    -2.9700     0.0420 cd         1 8ZS      -0.184100
      6 C02         -1.6160    -2.6590     0.1510 cc         1 8ZS       0.226800
      7 C03         -2.6120    -1.7270     0.1370 cd         1 8ZS      -0.391300
      8 C04         -2.2610    -0.3590     0.0160 cd         1 8ZS       0.538800
      9 C05         -3.2960     0.6970    -0.0080 ca         1 8ZS      -0.160500
     10 C06         -4.6490     0.4020    -0.1790 ca         1 8ZS      -0.091500
     11 C07         -5.5970     1.4150    -0.2000 ca         1 8ZS      -0.140500
     12 C08         -5.2090     2.7390    -0.0480 ca         1 8ZS      -0.111000
     13 C09         -3.8640     3.0440     0.1190 ca         1 8ZS      -0.140500
     14 N11         -1.0140     0.0360    -0.0710 nd         1 8ZS      -0.643000
     15 C12         -0.0440    -0.8770    -0.0550 cd         1 8ZS       0.446500
     16 N15          3.4220     0.4060    -0.1380 ns         1 8ZS      -0.575900
     17 C16          4.3120     1.5500    -0.1520 c3         1 8ZS       0.116700
     18 C19          4.5200     2.1190     1.2490 c3         1 8ZS      -0.108100
     19 N23         -0.3300    -2.2410     0.0480 na         1 8ZS      -0.119100
     20 H101        -1.8690     2.2740     0.2640 ha         1 8ZS       0.146500
     21 H171         5.4050     0.8490    -1.8560 h1         1 8ZS       0.028200
     22 H172         6.2590     2.0480    -0.8790 h1         1 8ZS       0.028200
     23 H211         2.9020    -2.3740    -0.1020 ha         1 8ZS       0.154000
     24 H221         0.8410    -4.0440     0.1020 h4         1 8ZS       0.183000
     25 H011        -2.6780    -4.2170     0.3340 ho         1 8ZS       0.461000
     26 H031        -3.6370    -2.0530     0.2400 ha         1 8ZS       0.154000
     27 H061        -4.9820    -0.6180    -0.3170 ha         1 8ZS       0.146500
     28 H071        -6.6410     1.1660    -0.3380 ha         1 8ZS       0.133000
     29 H081        -5.9500     3.5280    -0.0620 ha         1 8ZS       0.131000
     30 H091        -3.5520     4.0740     0.2380 ha         1 8ZS       0.133000
     31 H151         3.8330    -0.4720     0.1370 hn         1 8ZS       0.318500
     32 H161         3.8530     2.3170    -0.7780 h1         1 8ZS       0.078700
     33 H181         6.9480    -0.2370    -0.6040 ho         1 8ZS       0.404000
     34 H192         4.9610     1.3800     1.9180 hc         1 8ZS       0.043367
     35 H193         5.1800     2.9870     1.2190 hc         1 8ZS       0.043367
     36 H191         3.5690     2.4380     1.6760 hc         1 8ZS       0.043367
     37 C14          2.0780     0.5050    -0.2370 c          1 8ZS       0.713300
     38 O01         -1.7480    -3.9650     0.2620 oh         1 8ZS      -0.484100
     39 O18          6.2210     0.1210    -0.0870 oh         1 8ZS      -0.606800
     40 O20          1.5140     1.5790    -0.4220 o          1 8ZS      -0.601100
@<TRIPOS>BOND
     1     1     9 ar  
     2     1    13 ar  
     3     1    20 1   
     4     2     4 1   
     5     2    15 2   
     6     2    37 1   
     7     3    17 1   
     8     3    21 1   
     9     3    22 1   
    10     3    39 1   
    11     4     5 2   
    12     4    23 1   
    13     5    19 1   
    14     5    24 1   
    15     6     7 2   
    16     6    19 1   
    17     6    38 1   
    18     7     8 1   
    19     7    26 1   
    20     8     9 1   
    21     8    14 2   
    22     9    10 ar  
    23    10    11 ar  
    24    10    27 1   
    25    11    12 ar  
    26    11    28 1   
    27    12    13 ar  
    28    12    29 1   
    29    13    30 1   
    30    14    15 1   
    31    15    19 1   
    32    16    17 1   
    33    16    31 1   
    34    16    37 1   
    35    17    18 1   
    36    17    32 1   
    37    18    34 1   
    38    18    35 1   
    39    18    36 1   
    40    25    38 1   
    41    33    39 1   
    42    37    40 2   
@<TRIPOS>SUBSTRUCTURE
     1 8ZS         1 TEMP              0 ****  ****    0 ROOT
