@<TRIPOS>MOLECULE
8ZS
   40    42     1     0     0
SMALL
No Charge or Current Charge


@<TRIPOS>ATOM
      1 C10         -3.1530     2.0030     0.5870 ca         1 8ZS      -0.073500
      2 C13          1.3020    -0.6650     0.0090 cc         1 8ZS      -0.226200
      3 C17          5.6750     1.0420    -0.9760 c3         1 8ZS       0.147600
      4 C21          1.8740    -1.9760     0.0920 cc         1 8ZS      -0.173000
      5 C22          0.8740    -2.9150     0.1960 cd         1 8ZS      -0.234100
      6 C02         -1.5960    -2.6830     0.2640 cc         1 8ZS       0.176100
      7 C03         -2.5690    -1.7050     0.2180 cd         1 8ZS      -0.308000
      8 C04         -2.2470    -0.2940     0.0840 cd         1 8ZS       0.473500
      9 C05         -3.3360     0.7090     0.0420 ca         1 8ZS      -0.160500
     10 C06         -4.5530     0.4220    -0.6170 ca         1 8ZS      -0.073500
     11 C07         -5.5740     1.3860    -0.6920 ca         1 8ZS      -0.122500
     12 C08         -5.3890     2.6560    -0.1240 ca         1 8ZS      -0.093000
     13 C09         -4.1760     2.9640     0.5110 ca         1 8ZS      -0.122500
     14 N11         -0.9530     0.2200     0.0090 nd         1 8ZS      -0.643000
     15 C12         -0.0590    -0.8260     0.0620 cd         1 8ZS       0.446500
     16 N15          3.4080     0.4490    -0.1420 ns         1 8ZS      -0.508900
     17 C16          4.3970     1.5270    -0.2370 c3         1 8ZS       0.116700
     18 C19          4.6990     2.1080     1.1620 c3         1 8ZS      -0.108100
     19 N23         -0.3150    -2.1770     0.1750 na         1 8ZS      -0.068400
     20 H101        -2.2200     2.2660     1.0830 ha         1 8ZS       0.128500
     21 H171         5.4180     0.8480    -2.0260 h1         1 8ZS       0.028200
     22 H172         6.4260     1.8430    -0.9650 h1         1 8ZS       0.028200
     23 H211         2.9390    -2.2050     0.0780 ha         1 8ZS       0.204000
     24 H221         0.9090    -3.9990     0.2800 h4         1 8ZS       0.233000
     25 H011        -2.7760    -4.1390     0.4390 ho         1 8ZS       0.500000
     26 H031        -3.6090    -1.9980     0.2980 ha         1 8ZS       0.136000
     27 H061        -4.7130    -0.5470    -1.0870 ha         1 8ZS       0.128500
     28 H071        -6.5080     1.1490    -1.1970 ha         1 8ZS       0.115000
     29 H081        -6.1790     3.4010    -0.1840 ha         1 8ZS       0.113000
     30 H091        -4.0260     3.9510     0.9440 ha         1 8ZS       0.115000
     31 H151         3.7570    -0.4980    -0.0830 hn         1 8ZS       0.318500
     32 H161         3.9660     2.3360    -0.8440 h1         1 8ZS       0.078700
     33 H181         7.0190    -0.3900    -0.8720 ho         1 8ZS       0.443000
     34 H192         5.1180     1.3400     1.8230 hc         1 8ZS       0.043367
     35 H193         5.4190     2.9310     1.0900 hc         1 8ZS       0.043367
     36 H191         3.7840     2.4980     1.6250 hc         1 8ZS       0.043367
     37 C14          2.0430     0.6160    -0.1120 c          1 8ZS       0.646300
     38 O01         -1.8050    -4.0070     0.3890 oh         1 8ZS      -0.523100
     39 O18          6.2040    -0.1550    -0.3750 oh         1 8ZS      -0.669000
     40 O20          1.5390     1.7280    -0.1810 o          1 8ZS      -0.601100
@<TRIPOS>BOND
     1     1     9 ar  
     2     1    13 ar  
     3     1    20 1   
     4     2     4 1   
     5     2    15 2   
     6     2    37 1   
     7     3    17 1   
     8     3    21 1   
     9     3    22 1   
    10     3    39 1   
    11     4     5 2   
    12     4    23 1   
    13     5    19 1   
    14     5    24 1   
    15     6     7 2   
    16     6    19 1   
    17     6    38 1   
    18     7     8 1   
    19     7    26 1   
    20     8     9 1   
    21     8    14 2   
    22     9    10 ar  
    23    10    11 ar  
    24    10    27 1   
    25    11    12 ar  
    26    11    28 1   
    27    12    13 ar  
    28    12    29 1   
    29    13    30 1   
    30    14    15 1   
    31    15    19 1   
    32    16    17 1   
    33    16    31 1   
    34    16    37 1   
    35    17    18 1   
    36    17    32 1   
    37    18    34 1   
    38    18    35 1   
    39    18    36 1   
    40    25    38 1   
    41    33    39 1   
    42    37    40 2   
@<TRIPOS>SUBSTRUCTURE
     1 8ZS         1 TEMP              0 ****  ****    0 ROOT
