@<TRIPOS>MOLECULE
8ZT
   63    67     1     0     0
SMALL
bcc


@<TRIPOS>ATOM
      1 CAL         -5.3680     3.0090     0.5510 c6         1 8ZT       0.161300
      2 CAM         -6.6700     3.6370     1.0180 c6         1 8ZT       0.124150
      3 OAN         -7.6990     3.4910     0.0680 os         1 8ZT      -0.398600
      4 CAO         -7.9260     2.1280    -0.2080 c6         1 8ZT       0.124150
      5 CAP         -6.6720     1.4440    -0.7190 c6         1 8ZT       0.161300
      6 NAK         -5.5870     1.6110     0.2380 nh         1 8ZT      -0.653000
      7 CAJ         -4.4790     0.7730     0.1190 ca         1 8ZT       0.211600
      8 CAI         -3.1760     1.2680     0.1790 ca         1 8ZT      -0.258500
      9 CAQ         -4.6710    -0.6050    -0.0070 ca         1 8ZT      -0.237000
     10 CAR         -3.5900    -1.4820    -0.0840 ca         1 8ZT       0.211600
     11 NAS         -3.8290    -2.8540    -0.1590 nh         1 8ZT      -0.653000
     12 CAT         -2.7060    -3.7630    -0.0510 c6         1 8ZT       0.161300
     13 CAU         -3.2110    -5.1650     0.2400 c6         1 8ZT       0.124150
     14 OAV         -4.1250    -5.6130    -0.7330 os         1 8ZT      -0.398600
     15 CAW         -5.2280    -4.7390    -0.8160 c6         1 8ZT       0.124150
     16 CAX         -4.7960    -3.3230    -1.1430 c6         1 8ZT       0.161300
     17 CAY         -2.2840    -0.9780    -0.0300 ca         1 8ZT      -0.258500
     18 CAH         -2.0940     0.3900     0.1170 ca         1 8ZT       0.216600
     19 NAG         -0.8310     0.9870     0.1910 nu         1 8ZT      -0.727300
     20 CAF          0.3920     0.4300     0.0950 cc         1 8ZT       0.747300
     21 SAZ          1.7950     1.4560     0.2430 ss         1 8ZT      -0.263300
     22 NAE          0.6640    -0.8300    -0.1030 nd         1 8ZT      -0.732000
     23 CAD          2.0010    -1.0330    -0.1550 cd         1 8ZT       0.465200
     24 CAC          2.8010     0.0570     0.0050 cc         1 8ZT      -0.253000
     25 CAB          4.2660     0.0410    -0.0300 c          1 8ZT       0.730700
     26 OAA          4.8800    -0.9910    -0.2470 o          1 8ZT      -0.574100
     27 NBA          4.8910     1.2260     0.1910 ns         1 8ZT      -0.494100
     28 CBB          6.2930     1.3550     0.1570 ca         1 8ZT       0.051600
     29 CBC          7.0820     0.8250     1.1750 ca         1 8ZT       0.041400
     30 CLB          6.3320     0.0170     2.5050 cl         1 8ZT      -0.091400
     31 CBE          8.4610     0.9550     1.1570 ca         1 8ZT      -0.120000
     32 CBF          9.0560     1.6400     0.1100 ca         1 8ZT      -0.116000
     33 CBG          8.2800     2.1850    -0.9020 ca         1 8ZT      -0.123000
     34 CBH          6.8950     2.0460    -0.8980 ca         1 8ZT      -0.072300
     35 CBI          6.0590     2.6250    -2.0000 c3         1 8ZT      -0.047800
     36 H1          -4.9700     3.5690    -0.3090 h1         1 8ZT       0.048575
     37 H2          -4.6480     3.0990     1.3650 h1         1 8ZT       0.048575
     38 H3          -6.9620     3.1830     1.9750 h1         1 8ZT       0.053325
     39 H4          -6.5230     4.7050     1.1830 h1         1 8ZT       0.053325
     40 H5          -8.2800     1.6050     0.6910 h1         1 8ZT       0.053325
     41 H6          -8.7100     2.0700    -0.9640 h1         1 8ZT       0.053325
     42 H7          -6.9000     0.3900    -0.8640 h1         1 8ZT       0.048575
     43 H8          -6.3940     1.8570    -1.6990 h1         1 8ZT       0.048575
     44 H9          -2.9860     2.3310     0.2550 ha         1 8ZT       0.151500
     45 H10         -5.6760    -1.0030     0.0240 ha         1 8ZT       0.140000
     46 H11         -2.0900    -3.7660    -0.9640 h1         1 8ZT       0.048575
     47 H12         -2.0620    -3.4660     0.7780 h1         1 8ZT       0.048575
     48 H13         -2.3720    -5.8620     0.2500 h1         1 8ZT       0.053325
     49 H14         -3.6740    -5.1750     1.2360 h1         1 8ZT       0.053325
     50 H15         -5.8860    -5.1140    -1.6010 h1         1 8ZT       0.053325
     51 H16         -5.7920    -4.7380     0.1270 h1         1 8ZT       0.053325
     52 H17         -5.6820    -2.6890    -1.1470 h1         1 8ZT       0.048575
     53 H18         -4.3680    -3.2890    -2.1550 h1         1 8ZT       0.048575
     54 H19         -1.4300    -1.6280    -0.1130 ha         1 8ZT       0.151500
     55 H20         -0.8500     1.9860     0.3210 hn         1 8ZT       0.448800
     56 H21          2.3760    -2.0330    -0.3200 h4         1 8ZT       0.061100
     57 H22          4.3550     2.0750     0.2940 hn         1 8ZT       0.324500
     58 H23          9.0580     0.5340     1.9540 ha         1 8ZT       0.150000
     59 H24         10.1310     1.7510     0.0870 ha         1 8ZT       0.137000
     60 H25          8.7550     2.7180    -1.7150 ha         1 8ZT       0.135000
     61 H26          5.3810     3.3970    -1.6300 hc         1 8ZT       0.045700
     62 H27          6.6880     3.0810    -2.7620 hc         1 8ZT       0.045700
     63 H28          5.4460     1.8630    -2.4830 hc         1 8ZT       0.045700
@<TRIPOS>BOND
     1     1     2 1   
     2     1     6 1   
     3     1    36 1   
     4     1    37 1   
     5     2     3 1   
     6     2    38 1   
     7     2    39 1   
     8     3     4 1   
     9     4     5 1   
    10     4    40 1   
    11     4    41 1   
    12     5     6 1   
    13     5    42 1   
    14     5    43 1   
    15     6     7 1   
    16     7     8 ar  
    17     7     9 ar  
    18     8    18 ar  
    19     8    44 1   
    20     9    10 ar  
    21     9    45 1   
    22    10    11 1   
    23    10    17 ar  
    24    11    12 1   
    25    11    16 1   
    26    12    13 1   
    27    12    46 1   
    28    12    47 1   
    29    13    14 1   
    30    13    48 1   
    31    13    49 1   
    32    14    15 1   
    33    15    16 1   
    34    15    50 1   
    35    15    51 1   
    36    16    52 1   
    37    16    53 1   
    38    17    18 ar  
    39    17    54 1   
    40    18    19 1   
    41    19    20 1   
    42    19    55 1   
    43    20    21 1   
    44    20    22 2   
    45    21    24 1   
    46    22    23 1   
    47    23    24 2   
    48    23    56 1   
    49    24    25 1   
    50    25    26 2   
    51    25    27 1   
    52    27    28 1   
    53    27    57 1   
    54    28    29 ar  
    55    28    34 ar  
    56    29    30 1   
    57    29    31 ar  
    58    31    32 ar  
    59    31    58 1   
    60    32    33 ar  
    61    32    59 1   
    62    33    34 ar  
    63    33    60 1   
    64    34    35 1   
    65    35    61 1   
    66    35    62 1   
    67    35    63 1   
@<TRIPOS>SUBSTRUCTURE
     1 8ZT         1 TEMP              0 ****  ****    0 ROOT
