@<TRIPOS>MOLECULE
8ZT
   63    67     1     0     0
SMALL
No Charge or Current Charge


@<TRIPOS>ATOM
      1 CAL         -5.2220     2.8980     1.1420 c6         1 8ZT       0.161300
      2 CAM         -6.5260     3.4070     1.8280 c6         1 8ZT       0.147350
      3 OAN         -7.6070     3.5040     0.8710 os         1 8ZT      -0.445000
      4 CAO         -7.9130     2.2320     0.2520 c6         1 8ZT       0.147350
      5 CAP         -6.6710     1.6700    -0.5040 c6         1 8ZT       0.161300
      6 NAK         -5.4460     1.6360     0.3630 nh         1 8ZT      -0.791400
      7 CAJ         -4.3770     0.7660     0.0470 ca         1 8ZT       0.350000
      8 CAI         -3.0700     1.2510    -0.0980 ca         1 8ZT      -0.240500
      9 CAQ         -4.6230    -0.6020    -0.1190 ca         1 8ZT      -0.219000
     10 CAR         -3.5830    -1.4840    -0.4360 ca         1 8ZT       0.350000
     11 NAS         -3.8590    -2.8610    -0.6050 nh         1 8ZT      -0.791400
     12 CAT         -2.8110    -3.9020    -0.3390 c6         1 8ZT       0.161300
     13 CAU         -3.4300    -5.3070    -0.0690 c6         1 8ZT       0.147350
     14 OAV         -4.3530    -5.6730    -1.1210 os         1 8ZT      -0.445000
     15 CAW         -5.4480    -4.7360    -1.2470 c6         1 8ZT       0.147350
     16 CAX         -4.9200    -3.3050    -1.5680 c6         1 8ZT       0.161300
     17 CAY         -2.2820    -0.9850    -0.5780 ca         1 8ZT      -0.240500
     18 CAH         -2.0240     0.3760    -0.3970 ca         1 8ZT       0.355000
     19 NAG         -0.7460     0.8950    -0.5570 nu         1 8ZT      -0.920900
     20 CAF          0.4850     0.4670    -0.1690 cc         1 8ZT       0.747300
     21 SAZ          1.9350     1.3860    -0.4710 ss         1 8ZT      -0.118400
     22 NAE          0.6140    -0.6540     0.5050 nd         1 8ZT      -0.732000
     23 CAD          1.9530    -0.8630     0.8130 cd         1 8ZT       0.399900
     24 CAC          2.7980     0.1220     0.3680 cc         1 8ZT      -0.332600
     25 CAB          4.2490     0.0760     0.5960 c          1 8ZT       0.663700
     26 OAA          4.8060    -0.8430     1.1820 o          1 8ZT      -0.574100
     27 NBA          4.9190     1.1600     0.0600 ns         1 8ZT      -0.168000
     28 CBB          6.2970     1.4980     0.1170 ca         1 8ZT      -0.041000
     29 CBC          6.9750     1.6370     1.3540 ca         1 8ZT       0.133000
     30 ClB          6.1360     1.4790     2.8990 cl         1 8ZT      -0.183000
     31 CBE          8.3390     1.9740     1.3760 ca         1 8ZT      -0.102000
     32 CBF          9.0350     2.1820     0.1760 ca         1 8ZT      -0.098000
     33 CBG          8.3640     2.0680    -1.0510 ca         1 8ZT      -0.105000
     34 CBH          6.9960     1.7340    -1.0910 ca         1 8ZT      -0.072300
     35 CBI          6.2910     1.6150    -2.4400 c3         1 8ZT      -0.047800
     36 H1          -4.8430     3.6880     0.4770 h1         1 8ZT       0.048575
     37 H2          -4.4640     2.7340     1.9220 h1         1 8ZT       0.048575
     38 H3          -6.8170     2.7170     2.6330 h1         1 8ZT       0.053325
     39 H4          -6.3500     4.3960     2.2750 h1         1 8ZT       0.053325
     40 H5          -8.2300     1.5200     1.0280 h1         1 8ZT       0.053325
     41 H6          -8.7480     2.3640    -0.4500 h1         1 8ZT       0.053325
     42 H7          -6.9200     0.6650    -0.8720 h1         1 8ZT       0.048575
     43 H8          -6.4820     2.2980    -1.3870 h1         1 8ZT       0.048575
     44 H9          -2.8640     2.3080     0.0180 ha         1 8ZT       0.133500
     45 H10         -5.6260    -0.9860     0.0230 ha         1 8ZT       0.122000
     46 H11         -2.1300    -3.9770    -1.1990 h1         1 8ZT       0.048575
     47 H12         -2.2060    -3.6180     0.5350 h1         1 8ZT       0.048575
     48 H13         -2.6320    -6.0600    -0.0100 h1         1 8ZT       0.053325
     49 H14         -3.9630    -5.3010     0.8930 h1         1 8ZT       0.053325
     50 H15         -6.1210    -5.0730    -2.0480 h1         1 8ZT       0.053325
     51 H16         -6.0200    -4.7190    -0.3070 h1         1 8ZT       0.053325
     52 H17         -5.7740    -2.6140    -1.5590 h1         1 8ZT       0.048575
     53 H18         -4.5150    -3.3010    -2.5910 h1         1 8ZT       0.048575
     54 H19         -1.4700    -1.6490    -0.8470 ha         1 8ZT       0.133500
     55 H20         -0.7200     1.8760    -0.8150 hn         1 8ZT       0.504000
     56 H21          2.2440    -1.7510     1.3640 h4         1 8ZT       0.061100
     57 H22          4.3390     1.8080    -0.4580 hn         1 8ZT       0.158000
     58 H23          8.8530     2.0840     2.3270 ha         1 8ZT       0.132000
     59 H24         10.0910     2.4440     0.1970 ha         1 8ZT       0.119000
     60 H25          8.9120     2.2420    -1.9750 ha         1 8ZT       0.117000
     61 H26          5.4670     2.3340    -2.5190 hc         1 8ZT       0.045700
     62 H27          6.9740     1.8090    -3.2760 hc         1 8ZT       0.045700
     63 H28          5.8770     0.6100    -2.5820 hc         1 8ZT       0.045700
@<TRIPOS>BOND
     1     1     2 1   
     2     1     6 1   
     3     1    36 1   
     4     1    37 1   
     5     2     3 1   
     6     2    38 1   
     7     2    39 1   
     8     3     4 1   
     9     4     5 1   
    10     4    40 1   
    11     4    41 1   
    12     5     6 1   
    13     5    42 1   
    14     5    43 1   
    15     6     7 1   
    16     7     8 ar  
    17     7     9 ar  
    18     8    18 ar  
    19     8    44 1   
    20     9    10 ar  
    21     9    45 1   
    22    10    11 1   
    23    10    17 ar  
    24    11    12 1   
    25    11    16 1   
    26    12    13 1   
    27    12    46 1   
    28    12    47 1   
    29    13    14 1   
    30    13    48 1   
    31    13    49 1   
    32    14    15 1   
    33    15    16 1   
    34    15    50 1   
    35    15    51 1   
    36    16    52 1   
    37    16    53 1   
    38    17    18 ar  
    39    17    54 1   
    40    18    19 1   
    41    19    20 1   
    42    19    55 1   
    43    20    21 1   
    44    20    22 2   
    45    21    24 1   
    46    22    23 1   
    47    23    24 2   
    48    23    56 1   
    49    24    25 1   
    50    25    26 2   
    51    25    27 1   
    52    27    28 1   
    53    27    57 1   
    54    28    29 ar  
    55    28    34 ar  
    56    29    30 1   
    57    29    31 ar  
    58    31    32 ar  
    59    31    58 1   
    60    32    33 ar  
    61    32    59 1   
    62    33    34 ar  
    63    33    60 1   
    64    34    35 1   
    65    35    61 1   
    66    35    62 1   
    67    35    63 1   
@<TRIPOS>SUBSTRUCTURE
     1 8ZT         1 TEMP              0 ****  ****    0 ROOT
