@<TRIPOS>MOLECULE
8ZU
   23    23     1     0     0
SMALL
bcc


@<TRIPOS>ATOM
      1 C1          -3.0300    -0.0010     0.1940 c          1 8ZU       0.922200
      2 C2          -1.5260     0.0170    -0.0340 ca         1 8ZU      -0.129600
      3 C3          -0.8440     1.2180    -0.2130 ca         1 8ZU      -0.107500
      4 C4           0.5280     1.2370    -0.4220 ca         1 8ZU      -0.157000
      5 C5           1.2650     0.0560    -0.4610 ca         1 8ZU      -0.120300
      6 C6           0.5810    -1.1470    -0.2840 ca         1 8ZU      -0.157000
      7 C7          -0.7900    -1.1650    -0.0740 ca         1 8ZU      -0.107500
      8 C8           2.7560     0.0720    -0.6400 c3         1 8ZU      -0.016100
      9 C9           3.5050    -0.1210     0.6800 c3         1 8ZU      -0.077400
     10 C10          5.0160    -0.0950     0.5020 c3         1 8ZU      -0.088100
     11 O1          -3.6060     1.1050     0.2150 o          1 8ZU      -0.828800
     12 O2          -3.5620    -1.1190     0.3410 o          1 8ZU      -0.828800
     13 H1          -1.3960     2.1480    -0.1910 ha         1 8ZU       0.143000
     14 H2           1.0350     2.1850    -0.5650 ha         1 8ZU       0.100000
     15 H3           1.1310    -2.0820    -0.3160 ha         1 8ZU       0.100000
     16 H4          -1.2980    -2.1110     0.0600 ha         1 8ZU       0.143000
     17 H5           3.0560    -0.7170    -1.3370 hc         1 8ZU       0.028700
     18 H6           3.0640     1.0190    -1.0930 hc         1 8ZU       0.028700
     19 H7           3.2010     0.6600     1.3840 hc         1 8ZU       0.042200
     20 H8           3.2020    -1.0710     1.1290 hc         1 8ZU       0.042200
     21 H9           5.3450    -0.8780    -0.1830 hc         1 8ZU       0.022033
     22 H10          5.3490     0.8610     0.0940 hc         1 8ZU       0.022033
     23 H11          5.5310    -0.2480     1.4510 hc         1 8ZU       0.022033
@<TRIPOS>BOND
     1     1     2 1   
     2     1    11 1   
     3     1    12 1   
     4     2     3 ar  
     5     2     7 ar  
     6     3     4 ar  
     7     3    13 1   
     8     4     5 ar  
     9     4    14 1   
    10     5     6 ar  
    11     5     8 1   
    12     6     7 ar  
    13     6    15 1   
    14     7    16 1   
    15     8     9 1   
    16     8    17 1   
    17     8    18 1   
    18     9    10 1   
    19     9    19 1   
    20     9    20 1   
    21    10    21 1   
    22    10    22 1   
    23    10    23 1   
@<TRIPOS>SUBSTRUCTURE
     1 8ZU         1 TEMP              0 ****  ****    0 ROOT
