@<TRIPOS>MOLECULE
8ZU
   23    23     1     0     0
SMALL
No Charge or Current Charge


@<TRIPOS>ATOM
      1 C1          -3.0670     0.0210     0.1760 c          1 8ZU       0.711600
      2 C2          -1.5610     0.0130    -0.0390 ca         1 8ZU      -0.129600
      3 C3          -0.8330     1.2240    -0.1240 ca         1 8ZU      -0.089500
      4 C4           0.5580     1.2150    -0.3220 ca         1 8ZU      -0.139000
      5 C5           1.2540    -0.0010    -0.4420 ca         1 8ZU      -0.120300
      6 C6           0.5410    -1.2100    -0.3570 ca         1 8ZU      -0.139000
      7 C7          -0.8510    -1.2050    -0.1590 ca         1 8ZU      -0.089500
      8 C8           2.7630    -0.0090    -0.6530 c3         1 8ZU      -0.016100
      9 C9           3.5360    -0.0340     0.6830 c3         1 8ZU      -0.077400
     10 C10          5.0660    -0.0430     0.4980 c3         1 8ZU      -0.088100
     11 O1          -3.6400     1.0970     0.2740 o          1 8ZU      -0.723500
     12 O2          -3.6560    -1.0500     0.2430 o          1 8ZU      -0.723500
     13 H1          -1.3460     2.1800    -0.0350 ha         1 8ZU       0.125000
     14 H2           1.0970     2.1580    -0.3820 ha         1 8ZU       0.082000
     15 H3           1.0660    -2.1580    -0.4440 ha         1 8ZU       0.082000
     16 H4          -1.3770    -2.1550    -0.0980 ha         1 8ZU       0.125000
     17 H5           3.0540    -0.8790    -1.2540 hc         1 8ZU       0.028700
     18 H6           3.0670     0.8750    -1.2270 hc         1 8ZU       0.028700
     19 H7           3.2530     0.8400     1.2810 hc         1 8ZU       0.042200
     20 H8           3.2400    -0.9220     1.2550 hc         1 8ZU       0.042200
     21 H9           5.3840    -0.9260    -0.0680 hc         1 8ZU       0.022033
     22 H10          5.3970     0.8530    -0.0410 hc         1 8ZU       0.022033
     23 H11          5.5680    -0.0610     1.4730 hc         1 8ZU       0.022033
@<TRIPOS>BOND
     1     1     2 1   
     2     1    11 1   
     3     1    12 1   
     4     2     3 ar  
     5     2     7 ar  
     6     3     4 ar  
     7     3    13 1   
     8     4     5 ar  
     9     4    14 1   
    10     5     6 ar  
    11     5     8 1   
    12     6     7 ar  
    13     6    15 1   
    14     7    16 1   
    15     8     9 1   
    16     8    17 1   
    17     8    18 1   
    18     9    10 1   
    19     9    19 1   
    20     9    20 1   
    21    10    21 1   
    22    10    22 1   
    23    10    23 1   
@<TRIPOS>SUBSTRUCTURE
     1 8ZU         1 TEMP              0 ****  ****    0 ROOT
