@<TRIPOS>MOLECULE
8ZV
   78    80     1     0     0
SMALL
abcg2


@<TRIPOS>ATOM
      1 C11       -126.3150   -27.9560   154.8960 c3         1 8ZV       0.139600
      2 C16       -127.7400   -23.5640   156.3470 ca         1 8ZV      -0.145500
      3 C15       -128.8800   -24.3600   156.2820 ca         1 8ZV      -0.084600
      4 C14       -128.7970   -25.8170   155.9350 c          1 8ZV       0.610700
      5 C12       -127.3710   -27.8280   155.9800 c3         1 8ZV       0.074000
      6 C17       -127.8730   -22.1990   156.5870 ca         1 8ZV       0.176100
      7 C04       -125.6060   -26.5470   150.8900 c6         1 8ZV       0.230800
      8 C05       -125.4700   -27.5450   149.7450 c6         1 8ZV      -0.088400
      9 C06       -126.2510   -28.8260   150.0410 c6         1 8ZV      -0.076400
     10 C07       -127.7140   -28.5160   150.3580 c6         1 8ZV      -0.073400
     11 C08       -127.8360   -27.4930   151.4980 c6         1 8ZV       0.189500
     12 C09       -127.5020   -28.1440   152.8450 c          1 8ZV       0.573100
     13 C19       -126.8020   -20.0580   156.7020 c3         1 8ZV       0.126100
     14 C20       -125.3970   -19.5250   156.4690 c3         1 8ZV       0.155600
     15 C22       -125.3440   -17.5650   157.8240 c3         1 8ZV       0.142400
     16 C23       -129.1280   -21.6290   156.7870 ca         1 8ZV      -0.255000
     17 C24       -130.2610   -22.4410   156.7130 ca         1 8ZV       0.176100
     18 C26       -131.7140   -20.5580   157.0460 c3         1 8ZV       0.126100
     19 C27       -133.1930   -20.2650   157.1850 c3         1 8ZV       0.155600
     20 C29       -133.9860   -21.9190   158.7290 c3         1 8ZV       0.142400
     21 C30       -130.1420   -23.8030   156.4580 ca         1 8ZV      -0.145500
     22 C33       -127.5210   -24.2390   152.9140 c3         1 8ZV      -0.267100
     23 C34       -128.0140   -22.8320   153.0700 ca         1 8ZV      -0.066300
     24 C35       -129.3740   -22.5720   153.2340 ca         1 8ZV      -0.083500
     25 C36       -129.8280   -21.2680   153.3780 ca         1 8ZV      -0.113500
     26 C37       -128.9260   -20.2090   153.3580 ca         1 8ZV      -0.112000
     27 C38       -127.5680   -20.4600   153.1940 ca         1 8ZV      -0.113500
     28 C39       -127.1150   -21.7660   153.0490 ca         1 8ZV      -0.083500
     29 N03       -127.0300   -26.3180   151.1830 n3         1 8ZV      -0.799500
     30 N13       -127.6670   -26.4490   156.3120 ns         1 8ZV      -0.504900
     31 O01       -126.8490   -23.9740   150.3770 o          1 8ZV      -0.540500
     32 O10       -126.7440   -27.3830   153.6360 os         1 8ZV      -0.448100
     33 O18       -126.7200   -21.4800   156.5890 os         1 8ZV      -0.354100
     34 O21       -125.3640   -18.1080   156.5080 os         1 8ZV      -0.459500
     35 O25       -131.5260   -21.9650   156.8610 os         1 8ZV      -0.354100
     36 O28       -133.7330   -20.5430   158.4680 os         1 8ZV      -0.459500
     37 O31       -129.7110   -26.3840   155.3320 o          1 8ZV      -0.600100
     38 O32       -127.9080   -29.2420   153.1490 o          1 8ZV      -0.477000
     39 O40       -129.0800   -24.9350   150.9170 o          1 8ZV      -0.540500
     40 S02       -127.6680   -24.8210   151.2160 s6         1 8ZV       1.247100
     41 H1        -126.0610   -29.0040   154.7430 h1         1 8ZV       0.066200
     42 H2        -125.4200   -27.3950   155.1550 h1         1 8ZV       0.066200
     43 H3        -126.7530   -23.9580   156.1500 ha         1 8ZV       0.137500
     44 H4        -128.2960   -28.3080   155.6720 h1         1 8ZV       0.077200
     45 H5        -126.9980   -28.3410   156.8690 h1         1 8ZV       0.077200
     46 H6        -125.1180   -26.9290   151.7900 h1         1 8ZV       0.058700
     47 H7        -125.1510   -25.5950   150.6360 h1         1 8ZV       0.058700
     48 H8        -124.4120   -27.7660   149.5940 hc         1 8ZV       0.053700
     49 H9        -125.8480   -27.0850   148.8270 hc         1 8ZV       0.053700
     50 H10       -125.7930   -29.3420   150.8920 hc         1 8ZV       0.046700
     51 H11       -126.1960   -29.5100   149.1910 hc         1 8ZV       0.046700
     52 H12       -128.2570   -29.4200   150.6330 hc         1 8ZV       0.068200
     53 H13       -128.2030   -28.0840   149.4820 hc         1 8ZV       0.068200
     54 H14       -128.8770   -27.1800   151.5790 h1         1 8ZV       0.112700
     55 H15       -127.4780   -19.6580   155.9440 h1         1 8ZV       0.045950
     56 H16       -127.1770   -19.7860   157.6920 h1         1 8ZV       0.045950
     57 H17       -125.0640   -19.8210   155.4730 h1         1 8ZV       0.058950
     58 H18       -124.7040   -19.9490   157.2060 h1         1 8ZV       0.058950
     59 H19       -125.2350   -16.4870   157.7210 h1         1 8ZV       0.034867
     60 H20       -126.2690   -17.7770   158.3690 h1         1 8ZV       0.034867
     61 H21       -124.4980   -17.9630   158.3940 h1         1 8ZV       0.034867
     62 H22       -129.2240   -20.5720   156.9620 ha         1 8ZV       0.125000
     63 H23       -131.1840   -20.2220   157.9420 h1         1 8ZV       0.045950
     64 H24       -131.3180   -20.0210   156.1790 h1         1 8ZV       0.045950
     65 H25       -133.3330   -19.1940   157.0290 h1         1 8ZV       0.058950
     66 H26       -133.7520   -20.8040   156.4100 h1         1 8ZV       0.058950
     67 H27       -134.5660   -21.9650   159.6500 h1         1 8ZV       0.034867
     68 H28       -134.5650   -22.3690   157.9150 h1         1 8ZV       0.034867
     69 H29       -133.0600   -22.4850   158.8560 h1         1 8ZV       0.034867
     70 H30       -131.0280   -24.4160   156.3790 ha         1 8ZV       0.137500
     71 H31       -128.1000   -24.9500   153.4990 h1         1 8ZV       0.099700
     72 H32       -126.4670   -24.3410   153.1690 h1         1 8ZV       0.099700
     73 H33       -130.0740   -23.3970   153.2670 ha         1 8ZV       0.123000
     74 H34       -130.8840   -21.0800   153.5250 ha         1 8ZV       0.114500
     75 H35       -129.2790   -19.1930   153.4830 ha         1 8ZV       0.108000
     76 H36       -126.8590   -19.6420   153.1920 ha         1 8ZV       0.114500
     77 H37       -126.0560   -21.9630   152.9340 ha         1 8ZV       0.123000
     78 H38       -126.9830   -25.9390   156.8470 hn         1 8ZV       0.318500
@<TRIPOS>BOND
     1     1     5 1   
     2     1    32 1   
     3     1    41 1   
     4     1    42 1   
     5     2     3 ar  
     6     2     6 ar  
     7     2    43 1   
     8     3     4 1   
     9     3    21 ar  
    10     4    30 1   
    11     4    37 2   
    12     5    30 1   
    13     5    44 1   
    14     5    45 1   
    15     6    16 ar  
    16     6    33 1   
    17     7     8 1   
    18     7    29 1   
    19     7    46 1   
    20     7    47 1   
    21     8     9 1   
    22     8    48 1   
    23     8    49 1   
    24     9    10 1   
    25     9    50 1   
    26     9    51 1   
    27    10    11 1   
    28    10    52 1   
    29    10    53 1   
    30    11    12 1   
    31    11    29 1   
    32    11    54 1   
    33    12    32 1   
    34    12    38 2   
    35    13    14 1   
    36    13    33 1   
    37    13    55 1   
    38    13    56 1   
    39    14    34 1   
    40    14    57 1   
    41    14    58 1   
    42    15    34 1   
    43    15    59 1   
    44    15    60 1   
    45    15    61 1   
    46    16    17 ar  
    47    16    62 1   
    48    17    21 ar  
    49    17    35 1   
    50    18    19 1   
    51    18    35 1   
    52    18    63 1   
    53    18    64 1   
    54    19    36 1   
    55    19    65 1   
    56    19    66 1   
    57    20    36 1   
    58    20    67 1   
    59    20    68 1   
    60    20    69 1   
    61    21    70 1   
    62    22    23 1   
    63    22    40 1   
    64    22    71 1   
    65    22    72 1   
    66    23    24 ar  
    67    23    28 ar  
    68    24    25 ar  
    69    24    73 1   
    70    25    26 ar  
    71    25    74 1   
    72    26    27 ar  
    73    26    75 1   
    74    27    28 ar  
    75    27    76 1   
    76    28    77 1   
    77    29    40 1   
    78    30    78 1   
    79    31    40 2   
    80    39    40 2   
@<TRIPOS>SUBSTRUCTURE
     1 8ZV         1 TEMP              0 ****  ****    0 ROOT
