@<TRIPOS>MOLECULE
8ZV
   78    80     1     0     0
SMALL
No Charge or Current Charge


@<TRIPOS>ATOM
      1 C11        127.3870   -28.9010   154.1530 c3         1 8ZV       0.139600
      2 C16       -127.2740   -24.2720   156.1730 ca         1 8ZV      -0.145500
      3 C15        128.6430   -24.6270   156.1930 ca         1 8ZV      -0.084600
      4 C14       -129.1120   -26.0560   156.0000 c          1 8ZV       0.610700
      5 C12        128.4800   -28.3100   155.0810 c3         1 8ZV       0.074000
      6 C17       -126.8750   -22.9310   156.2560 ca         1 8ZV       0.176100
      7 C04        126.5790   -24.3230   152.7320 c6         1 8ZV       0.230800
      8 C05       -125.0460   -24.4480   152.6120 c6         1 8ZV      -0.088400
      9 C06        124.6260   -25.9160   152.3940 c6         1 8ZV      -0.076400
     10 C07       -125.4100   -26.5330   151.2050 c6         1 8ZV      -0.073400
     11 C08        126.9590   -26.3390   151.2970 c6         1 8ZV       0.189500
     12 C09       -127.6690   -27.3810   152.2480 c          1 8ZV       0.573100
     13 C19        124.9980   -21.3260   156.2010 c3         1 8ZV       0.126100
     14 C20       -123.4590   -21.4200   156.0720 c3         1 8ZV       0.155600
     15 C22        122.9560   -19.2240   157.0360 c3         1 8ZV       0.142400
     16 C23       -127.8410   -21.9130   156.3800 ca         1 8ZV      -0.255000
     17 C24        129.2080   -22.2530   156.4260 ca         1 8ZV       0.176100
     18 C26       -129.9300   -19.8940   156.5800 c3         1 8ZV       0.126100
     19 C27        131.2710   -19.1180   156.6530 c3         1 8ZV       0.155600
     20 C29       -132.2090   -20.3000   158.5930 c3         1 8ZV       0.142400
     21 C30        129.5970   -23.5970   156.3390 ca         1 8ZV      -0.145500
     22 C33       -129.6710   -24.4420   152.8910 c3         1 8ZV      -0.267100
     23 C34        131.1220   -23.9850   152.9210 ca         1 8ZV      -0.066300
     24 C35       -132.1520   -24.8690   152.5470 ca         1 8ZV      -0.083500
     25 C36        133.4940   -24.4510   152.5910 ca         1 8ZV      -0.113500
     26 C37       -133.8110   -23.1490   153.0130 ca         1 8ZV      -0.112000
     27 C38        132.7860   -22.2650   153.3920 ca         1 8ZV      -0.113500
     28 C39       -131.4450   -22.6830   153.3470 ca         1 8ZV      -0.083500
     29 N03        127.2520   -24.8700   151.5310 n3         1 8ZV      -0.799500
     30 N13       -128.1660   -26.9560   155.5570 ns         1 8ZV      -0.504900
     31 O01        128.7570   -22.9120   150.8750 o          1 8ZV      -0.540500
     32 O10       -126.8700   -27.8950   153.2460 os         1 8ZV      -0.448100
     33 O18        125.5230   -22.6660   156.1890 os         1 8ZV      -0.354100
     34 O21       -122.8890   -20.1010   155.8950 os         1 8ZV      -0.459500
     35 O25        130.2050   -21.3070   156.5270 os         1 8ZV      -0.354100
     36 O28       -131.7700   -19.0560   158.0140 os         1 8ZV      -0.459500
     37 O31        130.2690   -26.4010   156.1970 o          1 8ZV      -0.600100
     38 O32       -128.8460   -27.6900   152.1150 o          1 8ZV      -0.477000
     39 O40        129.4980   -25.2740   150.3620 o          1 8ZV      -0.540500
     40 S02       -128.8700   -24.3180   151.2780 s6         1 8ZV       1.247100
     41 H1         127.7910   -29.7620   153.6050 h1         1 8ZV       0.066200
     42 H2        -126.5690   -29.2700   154.7840 h1         1 8ZV       0.066200
     43 H3         126.4980   -25.0270   156.0810 ha         1 8ZV       0.137500
     44 H4        -129.4350   -28.2860   154.5410 h1         1 8ZV       0.077200
     45 H5         128.6120   -28.9710   155.9480 h1         1 8ZV       0.077200
     46 H6        -126.9150   -24.8540   153.6320 h1         1 8ZV       0.058700
     47 H7         126.8220   -23.2580   152.8680 h1         1 8ZV       0.058700
     48 H8        -124.5680   -24.0490   153.5160 hc         1 8ZV       0.053700
     49 H9         124.6970   -23.8320   151.7720 hc         1 8ZV       0.053700
     50 H10       -124.7950   -26.4890   153.3150 hc         1 8ZV       0.046700
     51 H11        123.5470   -25.9690   152.1970 hc         1 8ZV       0.046700
     52 H12       -125.1670   -27.6000   151.1070 hc         1 8ZV       0.068200
     53 H13        125.0600   -26.0610   150.2770 hc         1 8ZV       0.068200
     54 H14       -127.3440   -26.6250   150.3070 h1         1 8ZV       0.112700
     55 H15        125.3970   -20.7490   155.3570 h1         1 8ZV       0.045950
     56 H16       -125.2640   -20.8200   157.1380 h1         1 8ZV       0.045950
     57 H17        123.2210   -22.0460   155.2020 h1         1 8ZV       0.058950
     58 H18       -123.0430   -21.9120   156.9610 h1         1 8ZV       0.058950
     59 H19        122.4220   -18.2880   156.8270 h1         1 8ZV       0.034867
     60 H20       -123.9940   -18.9670   157.2820 h1         1 8ZV       0.034867
     61 H21        122.4930   -19.6890   157.9160 h1         1 8ZV       0.034867
     62 H22       -127.5360   -20.8750   156.4390 ha         1 8ZV       0.125000
     63 H23        129.3090   -19.6410   157.4500 h1         1 8ZV       0.045950
     64 H24       -129.3970   -19.5820   155.6730 h1         1 8ZV       0.045950
     65 H25        131.0920   -18.0990   156.2870 h1         1 8ZV       0.058950
     66 H26       -132.0060   -19.5800   155.9810 h1         1 8ZV       0.058950
     67 H27        132.7000   -20.1170   159.5570 h1         1 8ZV       0.034867
     68 H28       -132.9290   -20.8070   157.9370 h1         1 8ZV       0.034867
     69 H29        131.3640   -20.9750   158.7760 h1         1 8ZV       0.034867
     70 H30       -130.6580   -23.8340   156.3500 ha         1 8ZV       0.137500
     71 H31        129.5940   -25.4870   153.1980 h1         1 8ZV       0.099700
     72 H32       -129.0780   -23.8230   153.5700 h1         1 8ZV       0.099700
     73 H33        131.9130   -25.8800   152.2230 ha         1 8ZV       0.123000
     74 H34       -134.2860   -25.1370   152.2990 ha         1 8ZV       0.114500
     75 H35        134.8490   -22.8260   153.0490 ha         1 8ZV       0.108000
     76 H36       -133.0300   -21.2580   153.7230 ha         1 8ZV       0.114500
     77 H37        130.6580   -21.9930   153.6450 ha         1 8ZV       0.123000
     78 H38       -127.2290   -26.6060   155.4070 hn         1 8ZV       0.318500
@<TRIPOS>BOND
     1     1     5 1   
     2     1    32 1   
     3     1    41 1   
     4     1    42 1   
     5     2     3 ar  
     6     2     6 ar  
     7     2    43 1   
     8     3     4 1   
     9     3    21 ar  
    10     4    30 1   
    11     4    37 2   
    12     5    30 1   
    13     5    44 1   
    14     5    45 1   
    15     6    16 ar  
    16     6    33 1   
    17     7     8 1   
    18     7    29 1   
    19     7    46 1   
    20     7    47 1   
    21     8     9 1   
    22     8    48 1   
    23     8    49 1   
    24     9    10 1   
    25     9    50 1   
    26     9    51 1   
    27    10    11 1   
    28    10    52 1   
    29    10    53 1   
    30    11    12 1   
    31    11    29 1   
    32    11    54 1   
    33    12    32 1   
    34    12    38 2   
    35    13    14 1   
    36    13    33 1   
    37    13    55 1   
    38    13    56 1   
    39    14    34 1   
    40    14    57 1   
    41    14    58 1   
    42    15    34 1   
    43    15    59 1   
    44    15    60 1   
    45    15    61 1   
    46    16    17 ar  
    47    16    62 1   
    48    17    21 ar  
    49    17    35 1   
    50    18    19 1   
    51    18    35 1   
    52    18    63 1   
    53    18    64 1   
    54    19    36 1   
    55    19    65 1   
    56    19    66 1   
    57    20    36 1   
    58    20    67 1   
    59    20    68 1   
    60    20    69 1   
    61    21    70 1   
    62    22    23 1   
    63    22    40 1   
    64    22    71 1   
    65    22    72 1   
    66    23    24 ar  
    67    23    28 ar  
    68    24    25 ar  
    69    24    73 1   
    70    25    26 ar  
    71    25    74 1   
    72    26    27 ar  
    73    26    75 1   
    74    27    28 ar  
    75    27    76 1   
    76    28    77 1   
    77    29    40 1   
    78    30    78 1   
    79    31    40 2   
    80    39    40 2   
@<TRIPOS>SUBSTRUCTURE
     1 8ZV         1 TEMP              0 ****  ****    0 ROOT
