@<TRIPOS>MOLECULE
8ZW
   56    59     1     0     0
SMALL
abcg2


@<TRIPOS>ATOM
      1 CAO          6.7640    -1.4980     0.7390 c6         1 8ZW       0.163800
      2 CAP          7.9480    -2.2230     0.1300 c6         1 8ZW       0.147100
      3 OAQ          7.6270    -3.5550    -0.1990 os         1 8ZW      -0.441000
      4 CAR          6.5570    -3.5900    -1.1130 c6         1 8ZW       0.147100
      5 CAS          5.3110    -2.9190    -0.5610 c6         1 8ZW       0.163800
      6 NAN          5.6210    -1.5590    -0.1640 nh         1 8ZW      -0.798400
      7 CAM          4.5870    -0.6580     0.0110 ca         1 8ZW       0.325000
      8 CAL          3.2480    -1.0350    -0.0960 ca         1 8ZW      -0.196000
      9 CAT          4.8670     0.6960     0.2710 ca         1 8ZW      -0.096000
     10 CAU          3.8210     1.5830     0.3870 ca         1 8ZW      -0.200500
     11 SAV          4.2020     3.3010     0.6590 sy         1 8ZW       1.050500
     12 OAW          3.0690     3.9250     1.3410 o          1 8ZW      -0.519000
     13 OAY          5.5250     3.3920     1.2730 o          1 8ZW      -0.519000
     14 CAX          4.2990     3.9700    -0.9850 c3         1 8ZW      -0.335100
     15 CAZ          2.4840     1.2310     0.2660 ca         1 8ZW      -0.087000
     16 CAK          2.2070    -0.1090     0.0160 ca         1 8ZW       0.324000
     17 NAJ          0.9190    -0.6230    -0.1100 nu         1 8ZW      -0.923900
     18 CAI         -0.2640     0.0250    -0.0480 cc         1 8ZW       0.733300
     19 SBA         -1.7370    -0.8930    -0.1920 ss         1 8ZW      -0.105400
     20 NAH         -0.4370     1.3050     0.1160 nd         1 8ZW      -0.721000
     21 CAG         -1.7540     1.6160     0.1290 cd         1 8ZW       0.400900
     22 CAF         -2.6330     0.5880    -0.0250 cc         1 8ZW      -0.329600
     23 CAE         -4.0930     0.7260    -0.0440 c          1 8ZW       0.662700
     24 OBB         -4.6240     1.8090     0.1330 o          1 8ZW      -0.569100
     25 NAD         -4.8060    -0.4070    -0.2680 ns         1 8ZW      -0.168000
     26 CAC         -6.2140    -0.4060    -0.3200 ca         1 8ZW      -0.042000
     27 CAB         -6.9660    -0.2480     0.8420 ca         1 8ZW       0.133000
     28 CLA         -6.1640    -0.0700     2.3620 cl         1 8ZW      -0.182000
     29 CBG         -8.3510    -0.2520     0.8080 ca         1 8ZW      -0.101000
     30 CBF         -8.9900    -0.4350    -0.4080 ca         1 8ZW      -0.098000
     31 CBE         -8.2520    -0.6070    -1.5690 ca         1 8ZW      -0.105000
     32 CBC         -6.8610    -0.5880    -1.5450 ca         1 8ZW      -0.071300
     33 CBD         -6.0640    -0.7640    -2.8030 c3         1 8ZW      -0.047800
     34 H1           6.5090    -1.9460     1.7100 h1         1 8ZW       0.050700
     35 H2           7.0610    -0.4690     0.9250 h1         1 8ZW       0.050700
     36 H3           8.2890    -1.6750    -0.7600 h1         1 8ZW       0.055700
     37 H4           8.7700    -2.2480     0.8470 h1         1 8ZW       0.055700
     38 H5           6.8380    -3.0980    -2.0540 h1         1 8ZW       0.055700
     39 H6           6.3400    -4.6360    -1.3300 h1         1 8ZW       0.055700
     40 H7           4.5640    -2.9130    -1.3560 h1         1 8ZW       0.050700
     41 H8           4.9040    -3.5050     0.2760 h1         1 8ZW       0.050700
     42 H9           2.9870    -2.0730    -0.2580 ha         1 8ZW       0.112000
     43 H10          5.8860     1.0450     0.3510 ha         1 8ZW       0.141000
     44 H11          3.3450     3.8340    -1.4900 h1         1 8ZW       0.103700
     45 H12          4.5230     5.0320    -0.8910 h1         1 8ZW       0.103700
     46 H13          5.0930     3.4680    -1.5330 h1         1 8ZW       0.103700
     47 H14          1.6960     1.9590     0.3610 ha         1 8ZW       0.178000
     48 H15          0.8720    -1.6190    -0.2600 hn         1 8ZW       0.505000
     49 H16         -2.0530     2.6470     0.2550 h4         1 8ZW       0.067100
     50 H17         -4.3390    -1.2670    -0.5120 hn         1 8ZW       0.158000
     51 H18         -8.9210    -0.1230     1.7180 ha         1 8ZW       0.132000
     52 H19        -10.0710    -0.4450    -0.4460 ha         1 8ZW       0.120000
     53 H20         -8.7630    -0.7520    -2.5130 ha         1 8ZW       0.118000
     54 H21         -5.4890    -1.6920    -2.7870 hc         1 8ZW       0.045367
     55 H22         -6.7180    -0.7990    -3.6720 hc         1 8ZW       0.045367
     56 H23         -5.3540     0.0500    -2.9470 hc         1 8ZW       0.045367
@<TRIPOS>BOND
     1     1     2 1   
     2     1     6 1   
     3     1    34 1   
     4     1    35 1   
     5     2     3 1   
     6     2    36 1   
     7     2    37 1   
     8     3     4 1   
     9     4     5 1   
    10     4    38 1   
    11     4    39 1   
    12     5     6 1   
    13     5    40 1   
    14     5    41 1   
    15     6     7 1   
    16     7     8 ar  
    17     7     9 ar  
    18     8    16 ar  
    19     8    42 1   
    20     9    10 ar  
    21     9    43 1   
    22    10    11 1   
    23    10    15 ar  
    24    11    12 2   
    25    11    13 2   
    26    11    14 1   
    27    14    44 1   
    28    14    45 1   
    29    14    46 1   
    30    15    16 ar  
    31    15    47 1   
    32    16    17 1   
    33    17    18 1   
    34    17    48 1   
    35    18    19 1   
    36    18    20 2   
    37    19    22 1   
    38    20    21 1   
    39    21    22 2   
    40    21    49 1   
    41    22    23 1   
    42    23    24 2   
    43    23    25 1   
    44    25    26 1   
    45    25    50 1   
    46    26    27 ar  
    47    26    32 ar  
    48    27    28 1   
    49    27    29 ar  
    50    29    30 ar  
    51    29    51 1   
    52    30    31 ar  
    53    30    52 1   
    54    31    32 ar  
    55    31    53 1   
    56    32    33 1   
    57    33    54 1   
    58    33    55 1   
    59    33    56 1   
@<TRIPOS>SUBSTRUCTURE
     1 8ZW         1 TEMP              0 ****  ****    0 ROOT
