@<TRIPOS>MOLECULE
8ZW
   56    59     1     0     0
SMALL
No Charge or Current Charge


@<TRIPOS>ATOM
      1 CAO          6.3490    -1.6800     1.2220 c6         1 8ZW       0.163800
      2 CAP          7.6770    -2.4480     0.9480 c6         1 8ZW       0.147100
      3 OAQ          7.4120    -3.7330     0.3360 os         1 8ZW      -0.441000
      4 CAR          6.7150    -3.6110    -0.9260 c6         1 8ZW       0.147100
      5 CAS          5.3440    -2.8970    -0.7350 c6         1 8ZW       0.163800
      6 NAN          5.4800    -1.5950     0.0010 nh         1 8ZW      -0.798400
      7 CAM          4.4910    -0.5870    -0.1040 ca         1 8ZW       0.325000
      8 CAL          3.1470    -0.9130    -0.3600 ca         1 8ZW      -0.196000
      9 CAT          4.8530     0.7650     0.0410 ca         1 8ZW      -0.096000
     10 CAU          3.8870     1.7880    -0.0660 ca         1 8ZW      -0.200500
     11 SAV          4.3690     3.5250     0.0930 sy         1 8ZW       1.050500
     12 OAW          3.1820     4.3210     0.4310 o          1 8ZW      -0.519000
     13 OAY          5.5950     3.6070     0.8970 o          1 8ZW      -0.519000
     14 CAX          4.8260     3.9740    -1.5800 c3         1 8ZW      -0.335100
     15 CAZ          2.5440     1.4380    -0.3210 ca         1 8ZW      -0.087000
     16 CAK          2.1720     0.0890    -0.4560 ca         1 8ZW       0.324000
     17 NAJ          0.8570    -0.2890    -0.7260 nu         1 8ZW      -0.923900
     18 CAI         -0.3500     0.1610    -0.2870 cc         1 8ZW       0.733300
     19 SBA         -1.8570    -0.5820    -0.7520 ss         1 8ZW      -0.105400
     20 NAH         -0.4120     1.1690     0.5530 nd         1 8ZW      -0.721000
     21 CAG         -1.7390     1.4280     0.8760 cd         1 8ZW       0.400900
     22 CAF         -2.6430     0.5930     0.2700 cc         1 8ZW      -0.329600
     23 CAE         -4.0910     0.7120     0.4870 c          1 8ZW       0.662700
     24 OBB         -4.5930     1.5670     1.2070 o          1 8ZW      -0.569100
     25 NAD         -4.8270    -0.2180    -0.2240 ns         1 8ZW      -0.168000
     26 CAC         -6.2280    -0.4550    -0.2360 ca         1 8ZW      -0.042000
     27 CAB         -6.9420    -0.7360     0.9550 ca         1 8ZW       0.133000
     28 ClA         -6.1290    -0.8900     2.5150 cl         1 8ZW      -0.182000
     29 CBG         -8.3270    -0.9660     0.9090 ca         1 8ZW      -0.101000
     30 CBF         -9.0090    -0.9280    -0.3160 ca         1 8ZW      -0.098000
     31 CBE         -8.3040    -0.6720    -1.5020 ca         1 8ZW      -0.105000
     32 CBC         -6.9140    -0.4420    -1.4730 ca         1 8ZW      -0.071300
     33 CBD         -6.1730    -0.1640    -2.7790 c3         1 8ZW      -0.047800
     34 H1           5.8040    -2.1940     2.0280 h1         1 8ZW       0.050700
     35 H2           6.6020    -0.6780     1.5950 h1         1 8ZW       0.050700
     36 H3           8.3180    -1.8550     0.2800 h1         1 8ZW       0.055700
     37 H4           8.2190    -2.6020     1.8910 h1         1 8ZW       0.055700
     38 H5           7.3380    -3.0400    -1.6290 h1         1 8ZW       0.055700
     39 H6           6.5570    -4.6130    -1.3490 h1         1 8ZW       0.055700
     40 H7           4.9020    -2.7280    -1.7280 h1         1 8ZW       0.050700
     41 H8           4.6690    -3.5700    -0.1850 h1         1 8ZW       0.050700
     42 H9           2.8520    -1.9510    -0.4650 ha         1 8ZW       0.112000
     43 H10          5.8950     1.0180     0.2190 ha         1 8ZW       0.141000
     44 H11          3.9530     3.8290    -2.2250 h1         1 8ZW       0.103700
     45 H12          5.1370     5.0240    -1.5790 h1         1 8ZW       0.103700
     46 H13          5.6510     3.3260    -1.8950 h1         1 8ZW       0.103700
     47 H14          1.7880     2.2120    -0.4260 ha         1 8ZW       0.178000
     48 H15          0.7620    -1.2010    -1.1630 hn         1 8ZW       0.505000
     49 H16         -1.9760     2.2370     1.5580 h4         1 8ZW       0.067100
     50 H17         -4.2860    -0.8180    -0.8320 hn         1 8ZW       0.158000
     51 H18         -8.8690    -1.1870     1.8250 ha         1 8ZW       0.132000
     52 H19        -10.0820    -1.1080    -0.3480 ha         1 8ZW       0.120000
     53 H20         -8.8420    -0.6540    -2.4470 ha         1 8ZW       0.118000
     54 H21         -5.4020    -0.9220    -2.9630 hc         1 8ZW       0.045367
     55 H22         -6.8500    -0.1690    -3.6410 hc         1 8ZW       0.045367
     56 H23         -5.6830     0.8170    -2.7530 hc         1 8ZW       0.045367
@<TRIPOS>BOND
     1     1     2 1   
     2     1     6 1   
     3     1    34 1   
     4     1    35 1   
     5     2     3 1   
     6     2    36 1   
     7     2    37 1   
     8     3     4 1   
     9     4     5 1   
    10     4    38 1   
    11     4    39 1   
    12     5     6 1   
    13     5    40 1   
    14     5    41 1   
    15     6     7 1   
    16     7     8 ar  
    17     7     9 ar  
    18     8    16 ar  
    19     8    42 1   
    20     9    10 ar  
    21     9    43 1   
    22    10    11 1   
    23    10    15 ar  
    24    11    12 2   
    25    11    13 2   
    26    11    14 1   
    27    14    44 1   
    28    14    45 1   
    29    14    46 1   
    30    15    16 ar  
    31    15    47 1   
    32    16    17 1   
    33    17    18 1   
    34    17    48 1   
    35    18    19 1   
    36    18    20 2   
    37    19    22 1   
    38    20    21 1   
    39    21    22 2   
    40    21    49 1   
    41    22    23 1   
    42    23    24 2   
    43    23    25 1   
    44    25    26 1   
    45    25    50 1   
    46    26    27 ar  
    47    26    32 ar  
    48    27    28 1   
    49    27    29 ar  
    50    29    30 ar  
    51    29    51 1   
    52    30    31 ar  
    53    30    52 1   
    54    31    32 ar  
    55    31    53 1   
    56    32    33 1   
    57    33    54 1   
    58    33    55 1   
    59    33    56 1   
@<TRIPOS>SUBSTRUCTURE
     1 8ZW         1 TEMP              0 ****  ****    0 ROOT
