@<TRIPOS>MOLECULE
8ZX
   20    20     1     0     0
SMALL
bcc


@<TRIPOS>ATOM
      1 O1           3.0670    -1.2710     0.4430 o          1 8ZX      -0.610100
      2 C4           2.5800    -0.1860     0.1490 c          1 8ZX       0.689700
      3 N1           3.3360     0.8860    -0.1400 nt         1 8ZX      -0.671000
      4 C1           1.1020     0.0090     0.1050 ca         1 8ZX      -0.195600
      5 C3           0.4900     1.2640     0.1740 ca         1 8ZX      -0.050000
      6 C6          -0.8830     1.3890     0.1490 ca         1 8ZX      -0.204500
      7 C7          -1.6920     0.2530     0.0490 ca         1 8ZX       0.164100
      8 O2          -3.0150     0.4660     0.0270 os         1 8ZX      -0.315900
      9 C8          -3.8850    -0.6480    -0.0570 c3         1 8ZX       0.124700
     10 C5          -1.0950    -1.0050    -0.0170 ca         1 8ZX      -0.204500
     11 C2           0.2860    -1.1130     0.0210 ca         1 8ZX      -0.050000
     12 H1           4.3390     0.7950    -0.1500 hn         1 8ZX       0.311500
     13 H2           2.9560     1.7300    -0.5300 hn         1 8ZX       0.311500
     14 H3           1.0790     2.1670     0.2740 ha         1 8ZX       0.140500
     15 H4          -1.3420     2.3680     0.2150 ha         1 8ZX       0.143500
     16 H5          -3.7390    -1.2100    -0.9830 h1         1 8ZX       0.043700
     17 H6          -3.7600    -1.3260     0.7910 h1         1 8ZX       0.043700
     18 H7          -4.8960    -0.2500    -0.0440 h1         1 8ZX       0.043700
     19 H8          -1.6880    -1.9070    -0.0940 ha         1 8ZX       0.143500
     20 H9           0.7310    -2.0990    -0.0260 ha         1 8ZX       0.140500
@<TRIPOS>BOND
     1     1     2 2   
     2     2     3 1   
     3     2     4 1   
     4     3    12 1   
     5     3    13 1   
     6     4     5 ar  
     7     4    11 ar  
     8     5     6 ar  
     9     5    14 1   
    10     6     7 ar  
    11     6    15 1   
    12     7     8 1   
    13     7    10 ar  
    14     8     9 1   
    15     9    16 1   
    16     9    17 1   
    17     9    18 1   
    18    10    11 ar  
    19    10    19 1   
    20    11    20 1   
@<TRIPOS>SUBSTRUCTURE
     1 8ZX         1 TEMP              0 ****  ****    0 ROOT
