@<TRIPOS>MOLECULE
8ZX
   20    20     1     0     0
SMALL
No Charge or Current Charge


@<TRIPOS>ATOM
      1 O1           3.1680    -1.2820     0.0270 o          1 8ZX      -0.610100
      2 C4           2.6340    -0.1850     0.0280 c          1 8ZX       0.622700
      3 N1           3.4100     0.9200     0.0360 nt         1 8ZX      -0.604000
      4 C1           1.1320    -0.0090     0.0230 ca         1 8ZX      -0.195600
      5 C3           0.5280     1.2710     0.0260 ca         1 8ZX      -0.032000
      6 C6          -0.8720     1.3960     0.0210 ca         1 8ZX      -0.186500
      7 C7          -1.6930     0.2590     0.0130 ca         1 8ZX       0.164100
      8 O2          -3.0590     0.4490     0.0090 os         1 8ZX      -0.339100
      9 C8          -3.9870    -0.6510     0.0010 c3         1 8ZX       0.147900
     10 C5          -1.1010    -1.0200     0.0110 ca         1 8ZX      -0.186500
     11 C2           0.2990    -1.1500     0.0160 ca         1 8ZX      -0.032000
     12 H1           4.4130     0.8140     0.0390 hn         1 8ZX       0.311500
     13 H2           2.9920     1.8360     0.0370 hn         1 8ZX       0.311500
     14 H3           1.1270     2.1780     0.0310 ha         1 8ZX       0.122500
     15 H4          -1.3260     2.3840     0.0230 ha         1 8ZX       0.125500
     16 H5          -3.8480    -1.2720    -0.8930 h1         1 8ZX       0.043700
     17 H6          -3.8550    -1.2790     0.8910 h1         1 8ZX       0.043700
     18 H7          -5.0190    -0.2780    -0.0020 h1         1 8ZX       0.043700
     19 H8          -1.7060    -1.9220     0.0050 ha         1 8ZX       0.125500
     20 H9           0.7350    -2.1480     0.0140 ha         1 8ZX       0.122500
@<TRIPOS>BOND
     1     1     2 2   
     2     2     3 1   
     3     2     4 1   
     4     3    12 1   
     5     3    13 1   
     6     4     5 ar  
     7     4    11 ar  
     8     5     6 ar  
     9     5    14 1   
    10     6     7 ar  
    11     6    15 1   
    12     7     8 1   
    13     7    10 ar  
    14     8     9 1   
    15     9    16 1   
    16     9    17 1   
    17     9    18 1   
    18    10    11 ar  
    19    10    19 1   
    20    11    20 1   
@<TRIPOS>SUBSTRUCTURE
     1 8ZX         1 TEMP              0 ****  ****    0 ROOT
