@<TRIPOS>MOLECULE
8ZZ
   56    59     1     0     0
SMALL
No Charge or Current Charge


@<TRIPOS>ATOM
      1 FAX        -80.8740   -12.8730     1.8600 f          1 8ZZ      -0.265000
      2 CAW        -79.7570   -13.1340     2.6830 c6         1 8ZZ       0.173300
      3 CAV        -78.4930   -13.2120     1.7810 c6         1 8ZZ       0.132800
      4 NAU        -77.2820   -13.6170     2.5510 n7         1 8ZZ      -0.870400
      5 CAT        -77.4640   -14.8980     3.2750 c6         1 8ZZ       0.159800
      6 CAS        -78.6870   -14.8350     4.2220 c6         1 8ZZ      -0.087400
      7 CAR        -79.9820   -14.4720     3.4500 c6         1 8ZZ       0.083700
      8 NAQ        -81.1210   -14.3940     4.3870 ns         1 8ZZ      -0.498900
      9 CAP        -82.4300   -14.7160     4.0960 c          1 8ZZ       0.614700
     10 OAY        -82.7430   -15.1740     3.0040 o          1 8ZZ      -0.592100
     11 CAO        -83.4490   -14.4870     5.1970 ca         1 8ZZ      -0.110600
     12 CAZ        -84.8090   -14.8020     4.9630 ca         1 8ZZ      -0.105000
     13 CAN        -83.0900   -13.9630     6.4640 ca         1 8ZZ      -0.118000
     14 CAM        -84.0660   -13.7600     7.4540 ca         1 8ZZ      -0.080000
     15 CAL        -85.4090   -14.0820     7.1990 ca         1 8ZZ      -0.138000
     16 CAK        -85.7840   -14.6130     5.9560 ca         1 8ZZ       0.303000
     17 NAJ        -87.1110   -14.9310     5.6820 nu         1 8ZZ      -0.922900
     18 CAI        -88.0710   -15.5650     6.3930 cc         1 8ZZ       0.695300
     19 SBA        -87.9530   -16.1410     8.0380 ss         1 8ZZ       0.036600
     20 NAH        -89.1750   -15.8210     5.7370 nd         1 8ZZ      -0.739000
     21 CAG        -90.0530   -16.5050     6.5680 cd         1 8ZZ       0.370900
     22 CAF        -89.5700   -16.7580     7.8320 cc         1 8ZZ      -0.355600
     23 CAE        -90.3070   -17.4610     8.8960 c          1 8ZZ       0.656700
     24 OBB        -89.8250   -17.6670    10.0030 o          1 8ZZ      -0.593100
     25 NAD        -91.5760   -17.8830     8.5340 ns         1 8ZZ      -0.150000
     26 CAC        -92.5730   -18.5470     9.2990 ca         1 8ZZ      -0.035000
     27 CAB        -93.1210   -19.7430     8.7850 ca         1 8ZZ       0.102000
     28 ClA        -92.5680   -20.3930     7.2410 cl         1 8ZZ      -0.212000
     29 CBG        -94.1050   -20.4440     9.5000 ca         1 8ZZ      -0.096000
     30 CBF        -94.5610   -19.9520    10.7310 ca         1 8ZZ      -0.103000
     31 CBE        -94.0420   -18.7510    11.2400 ca         1 8ZZ      -0.102000
     32 CBC        -93.0560   -18.0330    10.5330 ca         1 8ZZ      -0.049300
     33 CBD        -92.5840   -16.6990    11.1090 c3         1 8ZZ      -0.050800
     34 H1         -79.6590   -12.3010     3.3930 h1         1 8ZZ       0.064700
     35 H2         -78.3210   -12.2330     1.3110 h1         1 8ZZ       0.050700
     36 H3         -78.6720   -13.9390     0.9740 h1         1 8ZZ       0.050700
     37 H4         -76.4840   -13.7060     1.9050 hn         1 8ZZ       0.422000
     38 H6         -77.6030   -15.7140     2.5490 h1         1 8ZZ       0.039700
     39 H7         -76.5580   -15.1230     3.8570 h1         1 8ZZ       0.039700
     40 H8         -78.8100   -15.8050     4.7230 hc         1 8ZZ       0.055200
     41 H9         -78.4980   -14.0960     5.0130 hc         1 8ZZ       0.055200
     42 H10        -80.1810   -15.2660     2.7140 h1         1 8ZZ       0.095700
     43 H11        -80.9460   -14.0330     5.3160 hn         1 8ZZ       0.314500
     44 H12        -85.1110   -15.2070     4.0000 ha         1 8ZZ       0.142000
     45 H13        -82.0620   -13.7020     6.6990 ha         1 8ZZ       0.118000
     46 H14        -83.7820   -13.3480     8.4210 ha         1 8ZZ       0.123000
     47 H15        -86.1550   -13.8990     7.9660 ha         1 8ZZ       0.128000
     48 H16        -87.3750   -14.9350     4.7020 hn         1 8ZZ       0.518000
     49 H17        -91.0260   -16.7870     6.1830 h4         1 8ZZ       0.039100
     50 H18        -91.8260   -17.7260     7.5670 hn         1 8ZZ       0.160000
     51 H19        -94.5120   -21.3690     9.0980 ha         1 8ZZ       0.131000
     52 H20        -95.3230   -20.4940    11.2860 ha         1 8ZZ       0.120000
     53 H21        -94.4180   -18.3700    12.1870 ha         1 8ZZ       0.119000
     54 H22        -92.3340   -15.9770    10.3240 hc         1 8ZZ       0.052700
     55 H23        -93.3620   -16.2360    11.7270 hc         1 8ZZ       0.052700
     56 H24        -91.7010   -16.8340    11.7450 hc         1 8ZZ       0.052700
@<TRIPOS>BOND
     1     1     2 1   
     2     2     3 1   
     3     2     7 1   
     4     2    34 1   
     5     3     4 1   
     6     3    35 1   
     7     3    36 1   
     8     4     5 1   
     9     4    37 1   
    10     5     6 1   
    11     5    38 1   
    12     5    39 1   
    13     6     7 1   
    14     6    40 1   
    15     6    41 1   
    16     7     8 1   
    17     7    42 1   
    18     8     9 1   
    19     8    43 1   
    20     9    10 2   
    21     9    11 1   
    22    11    12 ar  
    23    11    13 ar  
    24    12    16 ar  
    25    12    44 1   
    26    13    14 ar  
    27    13    45 1   
    28    14    15 ar  
    29    14    46 1   
    30    15    16 ar  
    31    15    47 1   
    32    16    17 1   
    33    17    18 1   
    34    17    48 1   
    35    18    19 1   
    36    18    20 2   
    37    19    22 1   
    38    20    21 1   
    39    21    22 2   
    40    21    49 1   
    41    22    23 1   
    42    23    24 2   
    43    23    25 1   
    44    25    26 1   
    45    25    50 1   
    46    26    27 ar  
    47    26    32 ar  
    48    27    28 1   
    49    27    29 ar  
    50    29    30 ar  
    51    29    51 1   
    52    30    31 ar  
    53    30    52 1   
    54    31    32 ar  
    55    31    53 1   
    56    32    33 1   
    57    33    54 1   
    58    33    55 1   
    59    33    56 1   
@<TRIPOS>SUBSTRUCTURE
     1 8ZZ         1 TEMP              0 ****  ****    0 ROOT
