@<TRIPOS>MOLECULE
8ZZ
   56    59     1     0     0
SMALL
abcg2


@<TRIPOS>ATOM
      1 FAX        -81.2190   -12.7830     2.0710 f          1 8ZZ      -0.265000
      2 CAW        -80.0400   -12.8720     2.8440 c6         1 8ZZ       0.173300
      3 CAV        -78.8470   -12.6560     1.9290 c6         1 8ZZ       0.132800
      4 NAU        -77.6260   -12.7840     2.7190 n7         1 8ZZ      -0.870400
      5 CAT        -77.4830   -14.1360     3.2620 c6         1 8ZZ       0.159800
      6 CAS        -78.6390   -14.4260     4.2140 c6         1 8ZZ      -0.087400
      7 CAR        -79.9890   -14.2400     3.5120 c6         1 8ZZ       0.083700
      8 NAQ        -81.0890   -14.4180     4.4420 ns         1 8ZZ      -0.498900
      9 CAP        -82.1640   -15.1970     4.2030 c          1 8ZZ       0.614700
     10 OAY        -82.3190   -15.8370     3.1620 o          1 8ZZ      -0.592100
     11 CAO        -83.1910   -15.2390     5.2980 ca         1 8ZZ      -0.110600
     12 CAZ        -84.5130   -15.4470     4.9300 ca         1 8ZZ      -0.105000
     13 CAN        -82.8590   -15.1070     6.6490 ca         1 8ZZ      -0.118000
     14 CAM        -83.8620   -15.1670     7.6050 ca         1 8ZZ      -0.080000
     15 CAL        -85.1920   -15.3480     7.2410 ca         1 8ZZ      -0.138000
     16 CAK        -85.5260   -15.4970     5.8920 ca         1 8ZZ       0.303000
     17 NAJ        -86.8340   -15.6650     5.4290 nu         1 8ZZ      -0.922900
     18 CAI        -87.9590   -16.0770     6.0630 cc         1 8ZZ       0.695300
     19 SBA        -88.0440   -16.6470     7.7080 ss         1 8ZZ       0.036600
     20 NAH        -89.1090   -16.1140     5.4110 nd         1 8ZZ      -0.739000
     21 CAG        -90.0970   -16.6070     6.2020 cd         1 8ZZ       0.370900
     22 CAF        -89.7450   -16.9610     7.4750 cc         1 8ZZ      -0.355600
     23 CAE        -90.5120   -17.4890     8.6010 c          1 8ZZ       0.656700
     24 OBB        -89.9950   -17.6460     9.7080 o          1 8ZZ      -0.593100
     25 NAD        -91.8230   -17.7810     8.3510 ns         1 8ZZ      -0.150000
     26 CAC        -92.7110   -18.3010     9.3200 ca         1 8ZZ      -0.035000
     27 CAB        -93.2810   -19.5630     9.1320 ca         1 8ZZ       0.102000
     28 CLA        -92.8570   -20.4960     7.7130 cl         1 8ZZ      -0.212000
     29 CBG        -94.1810   -20.1020    10.0390 ca         1 8ZZ      -0.096000
     30 CBF        -94.5100   -19.3660    11.1690 ca         1 8ZZ      -0.103000
     31 CBE        -93.9600   -18.1060    11.3650 ca         1 8ZZ      -0.102000
     32 CBC        -93.0680   -17.5480    10.4500 ca         1 8ZZ      -0.049300
     33 CBD        -92.5330   -16.1610    10.6620 c3         1 8ZZ      -0.050800
     34 H1         -80.1000   -12.0820     3.5950 h1         1 8ZZ       0.064700
     35 H2         -78.8980   -11.6580     1.4940 h1         1 8ZZ       0.050700
     36 H3         -78.9060   -13.3910     1.1100 h1         1 8ZZ       0.050700
     37 H4         -76.8250   -12.5500     2.1460 hn         1 8ZZ       0.422000
     38 H6         -77.4720   -14.8970     2.4660 h1         1 8ZZ       0.039700
     39 H7         -76.5350   -14.2010     3.7960 h1         1 8ZZ       0.039700
     40 H8         -78.5760   -15.4480     4.5920 hc         1 8ZZ       0.055200
     41 H9         -78.5810   -13.7490     5.0710 hc         1 8ZZ       0.055200
     42 H10        -80.1060   -14.9960     2.7350 h1         1 8ZZ       0.095700
     43 H11        -81.0730   -13.8680     5.2870 hn         1 8ZZ       0.314500
     44 H12        -84.7590   -15.5660     3.8830 ha         1 8ZZ       0.142000
     45 H13        -81.8300   -14.9810     6.9590 ha         1 8ZZ       0.118000
     46 H14        -83.6140   -15.0650     8.6530 ha         1 8ZZ       0.123000
     47 H15        -85.9480   -15.3370     8.0100 ha         1 8ZZ       0.128000
     48 H16        -86.9740   -15.5180     4.4380 hn         1 8ZZ       0.518000
     49 H17        -91.0970   -16.6780     5.7940 h4         1 8ZZ       0.039100
     50 H18        -92.1120   -17.8560     7.3880 hn         1 8ZZ       0.160000
     51 H19        -94.6050   -21.0800     9.8620 ha         1 8ZZ       0.131000
     52 H20        -95.2070   -19.7740    11.8890 ha         1 8ZZ       0.120000
     53 H21        -94.2390   -17.5290    12.2380 ha         1 8ZZ       0.119000
     54 H22        -92.5150   -15.6000     9.7270 hc         1 8ZZ       0.052700
     55 H23        -93.1480   -15.6250    11.3830 hc         1 8ZZ       0.052700
     56 H24        -91.5080   -16.1940    11.0350 hc         1 8ZZ       0.052700
@<TRIPOS>BOND
     1     1     2 1   
     2     2     3 1   
     3     2     7 1   
     4     2    34 1   
     5     3     4 1   
     6     3    35 1   
     7     3    36 1   
     8     4     5 1   
     9     4    37 1   
    10     5     6 1   
    11     5    38 1   
    12     5    39 1   
    13     6     7 1   
    14     6    40 1   
    15     6    41 1   
    16     7     8 1   
    17     7    42 1   
    18     8     9 1   
    19     8    43 1   
    20     9    10 2   
    21     9    11 1   
    22    11    12 ar  
    23    11    13 ar  
    24    12    16 ar  
    25    12    44 1   
    26    13    14 ar  
    27    13    45 1   
    28    14    15 ar  
    29    14    46 1   
    30    15    16 ar  
    31    15    47 1   
    32    16    17 1   
    33    17    18 1   
    34    17    48 1   
    35    18    19 1   
    36    18    20 2   
    37    19    22 1   
    38    20    21 1   
    39    21    22 2   
    40    21    49 1   
    41    22    23 1   
    42    23    24 2   
    43    23    25 1   
    44    25    26 1   
    45    25    50 1   
    46    26    27 ar  
    47    26    32 ar  
    48    27    28 1   
    49    27    29 ar  
    50    29    30 ar  
    51    29    51 1   
    52    30    31 ar  
    53    30    52 1   
    54    31    32 ar  
    55    31    53 1   
    56    32    33 1   
    57    33    54 1   
    58    33    55 1   
    59    33    56 1   
@<TRIPOS>SUBSTRUCTURE
     1 8ZZ         1 TEMP              0 ****  ****    0 ROOT
