@<TRIPOS>MOLECULE
G00
   34    34     1     0     0
SMALL
abcg2


@<TRIPOS>ATOM
      1 C1           1.4010    -0.0070    -0.3370 ca         1 G00       0.165100
      2 N1          -5.7210    -0.2010    -0.9580 n2         1 G00      -0.851100
      3 O1           2.7020     0.1700    -0.0910 os         1 G00      -0.330100
      4 S1          -3.6160    -0.4890     0.6280 ss         1 G00      -0.326200
      5 CL1          1.2890     2.6310     0.2190 cl         1 G00      -0.183000
      6 C2           0.8090    -1.2150    -0.6960 ca         1 G00      -0.201000
      7 N2          -6.1190    -0.5740     1.3490 nv         1 G00      -1.060200
      8 C3          -0.5590    -1.2890    -0.9180 ca         1 G00      -0.051000
      9 C4          -1.3720    -0.1710    -0.8000 ca         1 G00      -0.121300
     10 C5          -0.7840     1.0410    -0.4430 ca         1 G00      -0.048000
     11 C6           0.5750     1.1190    -0.2200 ca         1 G00       0.073000
     12 C7           3.5800    -0.9470    -0.1750 c3         1 G00       0.164600
     13 C8           4.9630    -0.4910     0.2340 c3         1 G00      -0.083400
     14 C9           5.9750    -1.6290     0.1610 c3         1 G00      -0.073400
     15 C10          7.3670    -1.1960     0.5980 c3         1 G00      -0.088100
     16 C11         -2.8540    -0.2560    -1.0080 c3         1 G00       0.133900
     17 C12         -5.3470    -0.4250     0.2350 c2         1 G00       0.656100
     18 HN1         -6.7350    -0.2000    -1.0310 hn         1 G00       0.380400
     19 H2           1.4070    -2.1090    -0.8060 ha         1 G00       0.121000
     20 HN2         -7.1000    -0.7530     1.2020 hn         1 G00       0.465000
     21 HN2A        -5.7370    -1.0670     2.1410 hn         1 G00       0.465000
     22 H3          -0.9920    -2.2430    -1.1940 ha         1 G00       0.118000
     23 H5          -1.3930     1.9310    -0.3420 ha         1 G00       0.136000
     24 H7           3.2340    -1.7500     0.4850 h1         1 G00       0.035700
     25 H7A          3.5900    -1.3400    -1.1990 h1         1 G00       0.035700
     26 H8           5.2860     0.3300    -0.4130 hc         1 G00       0.058200
     27 H8A          4.9270    -0.0970     1.2540 hc         1 G00       0.058200
     28 H9           5.6370    -2.4600     0.7860 hc         1 G00       0.037700
     29 H9A          6.0160    -2.0150    -0.8620 hc         1 G00       0.037700
     30 H10          7.7400    -0.3820    -0.0250 hc         1 G00       0.035033
     31 H10A         7.3640    -0.8450     1.6320 hc         1 G00       0.035033
     32 H10B         8.0780    -2.0180     0.5290 hc         1 G00       0.035033
     33 H11         -3.1190    -1.0950    -1.6500 h1         1 G00       0.084700
     34 H11A        -3.2530     0.6540    -1.4510 h1         1 G00       0.084700
@<TRIPOS>BOND
     1     1     3 1   
     2     1     6 ar  
     3     1    11 ar  
     4     2    17 2   
     5     2    18 1   
     6     3    12 1   
     7     4    16 1   
     8     4    17 1   
     9     5    11 1   
    10     6     8 ar  
    11     6    19 1   
    12     7    17 1   
    13     7    20 1   
    14     7    21 1   
    15     8     9 ar  
    16     8    22 1   
    17     9    10 ar  
    18     9    16 1   
    19    10    11 ar  
    20    10    23 1   
    21    12    13 1   
    22    12    24 1   
    23    12    25 1   
    24    13    14 1   
    25    13    26 1   
    26    13    27 1   
    27    14    15 1   
    28    14    28 1   
    29    14    29 1   
    30    15    30 1   
    31    15    31 1   
    32    15    32 1   
    33    16    33 1   
    34    16    34 1   
@<TRIPOS>SUBSTRUCTURE
     1 G00         1 TEMP              0 ****  ****    0 ROOT
