@<TRIPOS>MOLECULE
G00
   34    34     1     0     0
SMALL
No Charge or Current Charge


@<TRIPOS>ATOM
      1 C1           1.3820     0.0080    -0.2400 ca         1 G00       0.165100
      2 N1          -5.8870    -0.3230    -1.0690 n2         1 G00      -0.851100
      3 O1           2.7430     0.1050    -0.0080 os         1 G00      -0.330100
      4 S1          -3.8120    -0.3700     0.6560 ss         1 G00      -0.326200
      5 Cl1          1.3180     2.7170     0.3200 cl         1 G00      -0.183000
      6 C2           0.7670    -1.2140    -0.5920 ca         1 G00      -0.201000
      7 N2          -6.3510    -0.5480     1.1490 nv         1 G00      -1.060200
      8 C3          -0.6200    -1.2690    -0.8190 ca         1 G00      -0.051000
      9 C4          -1.4070    -0.1080    -0.7000 ca         1 G00      -0.121300
     10 C5          -0.7950     1.1110    -0.3480 ca         1 G00      -0.048000
     11 C6           0.5900     1.1700    -0.1200 ca         1 G00       0.073000
     12 C7           3.6230    -1.0270    -0.1080 c3         1 G00       0.164600
     13 C8           5.0470    -0.5390     0.2160 c3         1 G00      -0.083400
     14 C9           6.1020    -1.6650     0.1450 c3         1 G00      -0.073400
     15 C10          7.5280    -1.1790     0.4680 c3         1 G00      -0.088100
     16 C11         -2.9090    -0.1680    -0.9420 c3         1 G00       0.133900
     17 C12         -5.4990    -0.4100     0.1240 c2         1 G00       0.656100
     18 HN1         -6.9130    -0.3370    -1.0660 hn         1 G00       0.380400
     19 H2           1.3430    -2.1290    -0.6930 ha         1 G00       0.121000
     20 HN2         -7.1380    -1.1550     0.9510 hn         1 G00       0.465000
     21 HN2A        -5.8850    -0.7490     2.0270 hn         1 G00       0.465000
     22 H3          -1.0840    -2.2170    -1.0860 ha         1 G00       0.118000
     23 H5          -1.3940     2.0130    -0.2480 ha         1 G00       0.136000
     24 H7           3.3320    -1.8090     0.6060 h1         1 G00       0.035700
     25 H7A          3.6010    -1.4480    -1.1220 h1         1 G00       0.035700
     26 H8           5.3200     0.2580    -0.4870 hc         1 G00       0.058200
     27 H8A          5.0540    -0.0990     1.2210 hc         1 G00       0.058200
     28 H9           5.8290    -2.4630     0.8470 hc         1 G00       0.037700
     29 H9A          6.0950    -2.1070    -0.8600 hc         1 G00       0.037700
     30 H10          7.8440    -0.4030    -0.2400 hc         1 G00       0.035033
     31 H10A         7.5750    -0.7630     1.4820 hc         1 G00       0.035033
     32 H10B         8.2390    -2.0110     0.4050 hc         1 G00       0.035033
     33 H11         -3.1510    -1.0120    -1.6020 h1         1 G00       0.084700
     34 H11A        -3.2460     0.7540    -1.4330 h1         1 G00       0.084700
@<TRIPOS>BOND
     1     1     3 1   
     2     1     6 ar  
     3     1    11 ar  
     4     2    17 2   
     5     2    18 1   
     6     3    12 1   
     7     4    16 1   
     8     4    17 1   
     9     5    11 1   
    10     6     8 ar  
    11     6    19 1   
    12     7    17 1   
    13     7    20 1   
    14     7    21 1   
    15     8     9 ar  
    16     8    22 1   
    17     9    10 ar  
    18     9    16 1   
    19    10    11 ar  
    20    10    23 1   
    21    12    13 1   
    22    12    24 1   
    23    12    25 1   
    24    13    14 1   
    25    13    26 1   
    26    13    27 1   
    27    14    15 1   
    28    14    28 1   
    29    14    29 1   
    30    15    30 1   
    31    15    31 1   
    32    15    32 1   
    33    16    33 1   
    34    16    34 1   
@<TRIPOS>SUBSTRUCTURE
     1 G00         1 TEMP              0 ****  ****    0 ROOT
