@<TRIPOS>MOLECULE
G01
   23    22     1     0     0
SMALL
abcg2


@<TRIPOS>ATOM
      1 CD           3.6390     0.4840    -0.0740 c          1 G01       0.710000
      2 CG           2.1280     0.4870     0.2160 c3         1 G01      -0.195400
      3 CB           1.3720    -0.7780    -0.1650 c3         1 G01      -0.058400
      4 CA          -0.1180    -0.7330     0.1890 c3         1 G01       0.107500
      5 C           -0.7020    -2.1510     0.0360 c          1 G01       0.744000
      6 C6          -1.5930     2.0590     1.3590 c3         1 G01      -0.466100
      7 OPA         -2.7450     1.9100    -1.0950 o          1 G01      -0.859500
      8 OPB         -3.0780    -0.0750     0.5830 o          1 G01      -0.859500
      9 N           -0.8090     0.2470    -0.6300 n7         1 G01      -0.930500
     10 O           -1.0660    -2.5100    -1.0990 o          1 G01      -0.773000
     11 OXT         -0.6930    -2.8610     1.0670 o          1 G01      -0.773000
     12 OE1          4.1500    -0.5660    -0.5130 o          1 G01      -0.781500
     13 OE2          4.2430     1.5520     0.1660 o          1 G01      -0.781500
     14 HG2          1.9920     0.6750     1.2880 hc         1 G01       0.008700
     15 HG3          1.6960     1.3660    -0.2740 hc         1 G01       0.008700
     16 HB2          1.4770    -0.9800    -1.2350 hc         1 G01       0.034700
     17 HB3          1.8220    -1.6280     0.3530 hc         1 G01       0.034700
     18 HA          -0.1770    -0.4700     1.2570 h1         1 G01      -0.007300
     19 H6          -2.4270     2.5350     1.8790 hc         1 G01       0.019367
     20 H6A         -1.0360     1.4760     2.0940 hc         1 G01       0.019367
     21 H6B         -0.9340     2.8480     0.9920 hc         1 G01       0.019367
     22 H2          -0.1840     0.8860    -1.1030 hn         1 G01       0.402000
     23 P           -2.2010     1.0020    -0.0140 p5         1 G01       1.375300
@<TRIPOS>BOND
     1     1     2 1   
     2     1    12 1   
     3     1    13 1   
     4     2     3 1   
     5     2    14 1   
     6     2    15 1   
     7     3     4 1   
     8     3    16 1   
     9     3    17 1   
    10     4     5 1   
    11     4     9 1   
    12     4    18 1   
    13     5    10 1   
    14     5    11 1   
    15     6    19 1   
    16     6    20 1   
    17     6    21 1   
    18     6    23 1   
    19     7    23 1   
    20     8    23 1   
    21     9    22 1   
    22     9    23 1   
@<TRIPOS>SUBSTRUCTURE
     1 G01         1 TEMP              0 ****  ****    0 ROOT
