@<TRIPOS>MOLECULE
G01
   23    22     1     0     0
SMALL
No Charge or Current Charge


@<TRIPOS>ATOM
      1 CD           3.7880     0.3090    -0.3530 c          1 G01       0.710000
      2 CG           2.3300     0.5710     0.0710 c3         1 G01      -0.195400
      3 CB           1.4450    -0.6610    -0.2680 c3         1 G01      -0.058400
      4 CA          -0.0230    -0.5590     0.2320 c3         1 G01       0.107500
      5 C           -0.7530    -1.9750     0.1560 c          1 G01       0.744000
      6 C6          -1.9080     1.6500     1.6040 c3         1 G01      -0.466100
      7 OPA         -2.5090     2.2830    -0.9820 o          1 G01      -0.859500
      8 OPB         -3.2140     0.0020    -0.1810 o          1 G01      -0.859500
      9 N           -0.7100     0.5710    -0.4790 n7         1 G01      -0.930500
     10 O           -0.7790    -2.5830    -0.9110 o          1 G01      -0.773000
     11 OXT         -1.1940    -2.4610     1.1930 o          1 G01      -0.773000
     12 OE1          4.5370    -0.2310     0.4470 o          1 G01      -0.781500
     13 OE2          4.1270     0.6130    -1.4870 o          1 G01      -0.781500
     14 HG2          2.2650     0.6950     1.1600 hc         1 G01       0.008700
     15 HG3          1.9140     1.4150    -0.4930 hc         1 G01       0.008700
     16 HB2          1.4550    -0.8330    -1.3510 hc         1 G01       0.034700
     17 HB3          1.8990    -1.5480     0.1920 hc         1 G01       0.034700
     18 HA           0.0360    -0.3050     1.2990 h1         1 G01      -0.007300
     19 H6          -2.7500     2.2610     1.9490 hc         1 G01       0.019367
     20 H6A         -1.8120     0.7840     2.2670 hc         1 G01       0.019367
     21 H6B         -0.9930     2.2490     1.6600 hc         1 G01       0.019367
     22 H2          -0.1730     1.4180    -0.3310 hn         1 G01       0.402000
     23 P           -2.2200     1.1080    -0.1160 p5         1 G01       1.375300
@<TRIPOS>BOND
     1     1     2 1   
     2     1    12 1   
     3     1    13 1   
     4     2     3 1   
     5     2    14 1   
     6     2    15 1   
     7     3     4 1   
     8     3    16 1   
     9     3    17 1   
    10     4     5 1   
    11     4     9 1   
    12     4    18 1   
    13     5    10 1   
    14     5    11 1   
    15     6    19 1   
    16     6    20 1   
    17     6    21 1   
    18     6    23 1   
    19     7    23 1   
    20     8    23 1   
    21     9    22 1   
    22     9    23 1   
@<TRIPOS>SUBSTRUCTURE
     1 G01         1 TEMP              0 ****  ****    0 ROOT
