@<TRIPOS>MOLECULE
G02
   56    60     1     0     0
SMALL
No Charge or Current Charge


@<TRIPOS>ATOM
      1 FBI          8.9370     1.4530    -1.2380 f          1 G02      -0.114000
      2 CBG          7.8880     1.7510    -0.4360 c3         1 G02       0.356300
      3 FBJ          8.3000     1.5610     0.8380 f          1 G02      -0.114000
      4 FBK          7.6570     3.0760    -0.5830 f          1 G02      -0.114000
      5 CBC          6.6470     0.9060    -0.7530 ca         1 G02      -0.168300
      6 CBE          5.3550     1.3910    -0.4520 ca         1 G02      -0.121000
      7 CBB          6.7760    -0.3770    -1.3250 ca         1 G02      -0.086000
      8 CBD          5.6350    -1.1470    -1.6010 ca         1 G02      -0.093000
      9 CBF          4.3550    -0.6520    -1.3070 ca         1 G02      -0.096000
     10 CBA          4.2040     0.6270    -0.7280 ca         1 G02      -0.021000
     11 NAZ          2.9440     1.2000    -0.3920 ns         1 G02      -0.145000
     12 CAY          1.6360     0.7630    -0.5660 c          1 G02       0.623700
     13 OBH          1.3470    -0.2980    -1.1080 o          1 G02      -0.570100
     14 CAS          0.5540     1.6900    -0.0400 ca         1 G02      -0.147600
     15 CAT         -0.8040     1.3280    -0.1960 ca         1 G02      -0.049000
     16 CAU          0.8510     2.9150     0.6040 ca         1 G02      -0.095000
     17 CAV         -0.1830     3.7450     1.0660 ca         1 G02      -0.102000
     18 CAW         -1.5320     3.3750     0.9080 ca         1 G02      -0.081300
     19 CAX         -2.6230     4.3100     1.4320 c3         1 G02      -0.054800
     20 CAQ         -1.8490     2.1460     0.2820 ca         1 G02       0.285000
     21 NAP         -3.1940     1.7770     0.1150 nu         1 G02      -0.939900
     22 C6          -3.8530     0.5620     0.0330 ca         1 G02       0.463900
     23 N1          -3.1890    -0.5680     0.3360 nb         1 G02      -0.300000
     24 C5          -5.1950     0.4910    -0.3060 ca         1 G02      -0.386900
     25 CAO         -6.1620     1.4880    -0.6690 cc         1 G02       0.382800
     26 NAN         -7.3570     0.9410    -0.9300 nd         1 G02      -0.515100
     27 NAM         -7.1220    -0.4170    -0.7250 na         1 G02      -0.013100
     28 CAR         -8.1660    -1.4400    -0.8960 c3         1 G02       0.078900
     29 C4          -5.8250    -0.7150    -0.3490 ca         1 G02       0.152500
     30 N3          -5.1790    -1.8590    -0.0620 nb         1 G02      -0.172000
     31 C2          -3.8660    -1.7470     0.2760 cp         1 G02       0.157000
     32 CAA         -3.1020    -3.0100     0.6040 cp         1 G02       0.238000
     33 NAC         -3.7710    -4.2030     0.5590 nb         1 G02      -0.596000
     34 CAE         -3.0550    -5.3200     0.8620 ca         1 G02       0.276900
     35 CAF         -1.6810    -5.2650     1.2080 ca         1 G02       0.297900
     36 NAD         -0.9900    -4.0940     1.2610 nb         1 G02      -0.640000
     37 CAB         -1.7100    -2.9760     0.9570 ca         1 G02       0.335900
     38 H1           5.2430     2.3730     0.0020 ha         1 G02       0.124000
     39 H2           7.7580    -0.7850    -1.5550 ha         1 G02       0.133000
     40 H3           5.7450    -2.1360    -2.0430 ha         1 G02       0.123000
     41 H4           3.4990    -1.2800    -1.5320 ha         1 G02       0.148000
     42 H5           3.0190     2.0990     0.0630 hn         1 G02       0.157000
     43 H6          -1.0510     0.4080    -0.7130 ha         1 G02       0.157000
     44 H7           1.8760     3.2460     0.7530 ha         1 G02       0.118000
     45 H8           0.0710     4.6850     1.5520 ha         1 G02       0.120000
     46 H9          -3.2400     4.6970     0.6120 hc         1 G02       0.048033
     47 H10         -3.2820     3.7930     2.1400 hc         1 G02       0.048033
     48 H11         -2.2010     5.1750     1.9570 hc         1 G02       0.048033
     49 H12         -3.8370     2.5610     0.1800 hn         1 G02       0.508000
     50 H13         -6.0750     2.5630    -0.7620 h4         1 G02       0.048800
     51 H14         -9.1100    -0.9670    -1.1920 h1         1 G02       0.063367
     52 H15         -7.8580    -2.1500    -1.6730 h1         1 G02       0.063367
     53 H16         -8.3110    -1.9770     0.0490 h1         1 G02       0.063367
     54 H17         -3.5860    -6.2700     0.8270 h4         1 G02       0.032100
     55 H18         -1.1300    -6.1740     1.4460 h4         1 G02       0.031100
     56 H19         -1.1620    -2.0360     0.9960 h4         1 G02       0.051100
@<TRIPOS>BOND
     1     1     2 1   
     2     2     3 1   
     3     2     4 1   
     4     2     5 1   
     5     5     6 ar  
     6     5     7 ar  
     7     6    10 ar  
     8     6    38 1   
     9     7     8 ar  
    10     7    39 1   
    11     8     9 ar  
    12     8    40 1   
    13     9    10 ar  
    14     9    41 1   
    15    10    11 1   
    16    11    12 1   
    17    11    42 1   
    18    12    13 2   
    19    12    14 1   
    20    14    15 ar  
    21    14    16 ar  
    22    15    20 ar  
    23    15    43 1   
    24    16    17 ar  
    25    16    44 1   
    26    17    18 ar  
    27    17    45 1   
    28    18    19 1   
    29    18    20 ar  
    30    19    46 1   
    31    19    47 1   
    32    19    48 1   
    33    20    21 1   
    34    21    22 1   
    35    21    49 1   
    36    22    23 ar  
    37    22    24 ar  
    38    23    31 ar  
    39    24    25 1   
    40    24    29 ar  
    41    25    26 2   
    42    25    50 1   
    43    26    27 1   
    44    27    28 1   
    45    27    29 1   
    46    28    51 1   
    47    28    52 1   
    48    28    53 1   
    49    29    30 ar  
    50    30    31 ar  
    51    31    32 1   
    52    32    33 ar  
    53    32    37 ar  
    54    33    34 ar  
    55    34    35 ar  
    56    34    54 1   
    57    35    36 ar  
    58    35    55 1   
    59    36    37 ar  
    60    37    56 1   
@<TRIPOS>SUBSTRUCTURE
     1 G02         1 TEMP              0 ****  ****    0 ROOT
