@<TRIPOS>MOLECULE
G02
   56    60     1     0     0
SMALL
bcc


@<TRIPOS>ATOM
      1 FBI          8.0570    -0.9730     0.6020 f          1 G02      -0.235300
      2 CBG          6.9680    -0.2810     0.9440 c3         1 G02       0.720200
      3 FBJ          6.4410    -0.8840     2.0190 f          1 G02      -0.235300
      4 FBK          7.3830     0.9280     1.3530 f          1 G02      -0.235300
      5 CBC          5.9760    -0.1720    -0.1720 ca         1 G02      -0.168300
      6 CBE          4.7770     0.4790     0.0840 ca         1 G02      -0.139000
      7 CBB          6.2390    -0.6970    -1.4290 ca         1 G02      -0.104000
      8 CBD          5.2850    -0.5490    -2.4250 ca         1 G02      -0.111000
      9 CBF          4.0860     0.1040    -2.1890 ca         1 G02      -0.114000
     10 CBA          3.8210     0.6220    -0.9190 ca         1 G02       0.071600
     11 NAZ          2.6560     1.3150    -0.5860 ns         1 G02      -0.471100
     12 CAY          1.4450     1.2600    -1.2000 c          1 G02       0.690700
     13 OBH          1.2100     0.5600    -2.1680 o          1 G02      -0.570100
     14 CAS          0.3920     2.1160    -0.5800 ca         1 G02      -0.147600
     15 CAT         -0.9320     1.7190    -0.7320 ca         1 G02      -0.067000
     16 CAU          0.6760     3.2970     0.1010 ca         1 G02      -0.113000
     17 CAV         -0.3570     4.0510     0.6300 ca         1 G02      -0.120000
     18 CAW         -1.6830     3.6440     0.5300 ca         1 G02      -0.081300
     19 CAX         -2.7810     4.4570     1.1470 c3         1 G02      -0.054800
     20 CAQ         -1.9590     2.4560    -0.1590 ca         1 G02       0.146600
     21 NAP         -3.2990     2.0510    -0.2810 nu         1 G02      -0.746300
     22 C6          -3.7800     0.8000    -0.1250 ca         1 G02       0.792200
     23 N1          -2.9560    -0.1950     0.1580 nb         1 G02      -0.826000
     24 C5          -5.1590     0.5240    -0.2440 ca         1 G02      -0.517500
     25 CAO         -6.3800     1.1870    -0.5010 cc         1 G02       0.382800
     26 NAN         -7.3730     0.3330    -0.4700 nd         1 G02      -0.515100
     27 NAM         -6.8550    -0.8750    -0.2020 na         1 G02       0.016200
     28 CAR         -7.7050    -2.0330    -0.0860 c3         1 G02       0.049600
     29 C4          -5.5190    -0.8130    -0.0540 ca         1 G02       0.480800
     30 N3          -4.6910    -1.8210     0.2200 nb         1 G02      -0.698000
     31 C2          -3.4370    -1.4340     0.3090 cp         1 G02       0.683000
     32 CAA         -2.4170    -2.4710     0.6040 cp         1 G02       0.238000
     33 NAC         -2.8230    -3.7270     0.7460 nb         1 G02      -0.596000
     34 CAE         -1.9000    -4.6380     1.0000 ca         1 G02       0.276900
     35 CAF         -0.5560    -4.3040     1.1150 ca         1 G02       0.297900
     36 NAD         -0.1430    -3.0530     0.9760 nb         1 G02      -0.640000
     37 CAB         -1.0660    -2.1390     0.7220 ca         1 G02       0.335900
     38 H1           4.5700     0.8810     1.0690 ha         1 G02       0.142000
     39 H2           7.1640    -1.2110    -1.6470 ha         1 G02       0.151000
     40 H3           5.4800    -0.9460    -3.4120 ha         1 G02       0.141000
     41 H4           3.3770     0.2110    -2.9930 ha         1 G02       0.166000
     42 H5           2.6930     1.8040     0.2960 hn         1 G02       0.323500
     43 H6          -1.1590     0.8250    -1.2930 ha         1 G02       0.175000
     44 H7           1.6920     3.6590     0.2030 ha         1 G02       0.136000
     45 H8          -0.1290     4.9750     1.1450 ha         1 G02       0.138000
     46 H9          -3.4370     4.8940     0.3890 hc         1 G02       0.048033
     47 H10         -3.4070     3.8530     1.8060 hc         1 G02       0.048033
     48 H11         -2.3730     5.2790     1.7310 hc         1 G02       0.048033
     49 H12         -3.9820     2.7800    -0.4170 hn         1 G02       0.452800
     50 H13         -6.5650     2.2310    -0.7050 h4         1 G02       0.048800
     51 H14         -8.2970    -2.1560    -0.9910 h1         1 G02       0.063367
     52 H15         -7.0780    -2.9090     0.0490 h1         1 G02       0.063367
     53 H16         -8.3690    -1.9360     0.7700 h1         1 G02       0.063367
     54 H17         -2.2270    -5.6650     1.1160 h4         1 G02       0.032100
     55 H18          0.1890    -5.0620     1.3230 h4         1 G02       0.031100
     56 H19         -0.7370    -1.1140     0.6090 h4         1 G02       0.051100
@<TRIPOS>BOND
     1     1     2 1   
     2     2     3 1   
     3     2     4 1   
     4     2     5 1   
     5     5     6 ar  
     6     5     7 ar  
     7     6    10 ar  
     8     6    38 1   
     9     7     8 ar  
    10     7    39 1   
    11     8     9 ar  
    12     8    40 1   
    13     9    10 ar  
    14     9    41 1   
    15    10    11 1   
    16    11    12 1   
    17    11    42 1   
    18    12    13 2   
    19    12    14 1   
    20    14    15 ar  
    21    14    16 ar  
    22    15    20 ar  
    23    15    43 1   
    24    16    17 ar  
    25    16    44 1   
    26    17    18 ar  
    27    17    45 1   
    28    18    19 1   
    29    18    20 ar  
    30    19    46 1   
    31    19    47 1   
    32    19    48 1   
    33    20    21 1   
    34    21    22 1   
    35    21    49 1   
    36    22    23 ar  
    37    22    24 ar  
    38    23    31 ar  
    39    24    25 1   
    40    24    29 ar  
    41    25    26 2   
    42    25    50 1   
    43    26    27 1   
    44    27    28 1   
    45    27    29 1   
    46    28    51 1   
    47    28    52 1   
    48    28    53 1   
    49    29    30 ar  
    50    30    31 ar  
    51    31    32 1   
    52    32    33 ar  
    53    32    37 ar  
    54    33    34 ar  
    55    34    35 ar  
    56    34    54 1   
    57    35    36 ar  
    58    35    55 1   
    59    36    37 ar  
    60    37    56 1   
@<TRIPOS>SUBSTRUCTURE
     1 G02         1 TEMP              0 ****  ****    0 ROOT
