@<TRIPOS>MOLECULE
G03
   46    46     1     0     0
SMALL
No Charge or Current Charge


@<TRIPOS>ATOM
      1 OAU        -32.2410     8.5710   -23.2280 o          1 G03      -0.921500
      2 PAT        -32.1040     9.4520   -24.4180 p5         1 G03       1.267900
      3 OAV        -33.4540     9.7500   -24.9690 o          1 G03      -0.921500
      4 OAW        -31.2850     8.7790   -25.4630 o          1 G03      -0.921500
      5 OAS        -31.4050    10.8340   -23.9910 os         1 G03      -0.577400
      6 CAR        -30.0920    10.7840   -23.4290 c3         1 G03       0.273900
      7 CAQ        -29.6130    12.2050   -23.1420 ca         1 G03      -0.039300
      8 CAX        -28.5550    12.7210   -23.9180 ca         1 G03       0.268900
      9 NAY        -28.0460    13.9660   -23.7710 nb         1 G03      -0.680000
     10 CAB        -28.5920    14.7590   -22.8180 ca         1 G03       0.256300
     11 CAA        -27.9870    16.1520   -22.6830 c3         1 G03      -0.110400
     12 CAC        -29.6600    14.3300   -21.9830 ca         1 G03       0.103100
     13 OAD        -30.1830    15.1380   -21.0110 oh         1 G03      -0.594100
     14 CAE        -30.1880    13.0260   -22.1340 ca         1 G03      -0.130300
     15 CAF        -31.3840    12.5590   -21.2880 c3         1 G03       0.174100
     16 N          -31.2430    12.9950   -19.8690 n7         1 G03      -0.895400
     17 CA         -32.4580    12.8740   -18.9880 c3         1 G03       0.125500
     18 C          -32.2900    13.6470   -17.6330 c          1 G03       0.591100
     19 O          -31.7200    13.1940   -16.6460 o          1 G03      -0.509000
     20 OAN        -32.8100    14.9170   -17.7030 os         1 G03      -0.428100
     21 CAO        -32.7120    15.7540   -16.5380 c3         1 G03       0.151900
     22 CB         -32.8000    11.3730   -18.7640 c3         1 G03      -0.119400
     23 CG         -34.0200    11.1150   -17.8480 c3         1 G03       0.090600
     24 SD         -35.5550    11.9380   -18.4850 ss         1 G03      -0.530000
     25 CE         -35.9370    10.8660   -19.9530 c3         1 G03       0.056900
     26 H3         -30.0840    10.2040   -22.4970 h1         1 G03       0.010200
     27 H4         -29.3940    10.2980   -24.1240 h1         1 G03       0.010200
     28 H5         -28.0940    12.1140   -24.6970 h4         1 G03       0.009100
     29 H6         -27.1860    16.3290   -23.4110 hc         1 G03       0.025700
     30 H7         -28.7490    16.9240   -22.8380 hc         1 G03       0.025700
     31 H8         -27.5620    16.2960   -21.6830 hc         1 G03       0.025700
     32 H9         -30.7130    14.5080   -20.4400 ho         1 G03       0.511000
     33 H10        -32.2950    12.9820   -21.7380 h1         1 G03       0.108700
     34 H11        -33.3190    13.3500   -19.4790 h1         1 G03       0.111700
     35 H12        -33.1680    16.7330   -16.7330 h1         1 G03       0.035367
     36 H13        -33.2330    15.2990   -15.6850 h1         1 G03       0.035367
     37 H14        -31.6620    15.9160   -16.2600 h1         1 G03       0.035367
     38 H15        -32.9850    10.8860   -19.7270 hc         1 G03       0.092200
     39 H16        -31.9300    10.8690   -18.3250 hc         1 G03       0.092200
     40 H17        -34.1990    10.0340   -17.7700 h1         1 G03       0.048700
     41 H18        -33.8140    11.4900   -16.8380 h1         1 G03       0.048700
     42 H19        -36.8850    11.1820   -20.4090 h1         1 G03       0.086033
     43 H20        -35.1420    10.9490   -20.7060 h1         1 G03       0.086033
     44 H21        -36.0280     9.8170   -19.6430 h1         1 G03       0.086033
     45 H22        -31.4900    11.4670   -21.3460 h1         1 G03       0.108700
     46 H23        -30.4690    12.4660   -19.4360 hn         1 G03       0.424000
@<TRIPOS>BOND
     1     1     2 1   
     2     2     3 1   
     3     2     4 1   
     4     2     5 1   
     5     5     6 1   
     6     6     7 1   
     7     6    26 1   
     8     6    27 1   
     9     7     8 ar  
    10     7    14 ar  
    11     8     9 ar  
    12     8    28 1   
    13     9    10 ar  
    14    10    11 1   
    15    10    12 ar  
    16    11    29 1   
    17    11    30 1   
    18    11    31 1   
    19    12    13 1   
    20    12    14 ar  
    21    13    32 1   
    22    14    15 1   
    23    15    16 1   
    24    15    33 1   
    25    15    45 1   
    26    16    17 1   
    27    16    46 1   
    28    17    18 1   
    29    17    22 1   
    30    17    34 1   
    31    18    19 2   
    32    18    20 1   
    33    20    21 1   
    34    21    35 1   
    35    21    36 1   
    36    21    37 1   
    37    22    23 1   
    38    22    38 1   
    39    22    39 1   
    40    23    24 1   
    41    23    40 1   
    42    23    41 1   
    43    24    25 1   
    44    25    42 1   
    45    25    43 1   
    46    25    44 1   
@<TRIPOS>SUBSTRUCTURE
     1 G03         1 TEMP              0 ****  ****    0 ROOT
