@<TRIPOS>MOLECULE
G03
   46    46     1     0     0
SMALL
bcc


@<TRIPOS>ATOM
      1 OAU        -32.5810     9.5450   -21.9800 o          1 G03      -0.921500
      2 PAT        -32.6200     9.6670   -23.5090 p5         1 G03       1.267900
      3 OAV        -33.9470    10.1460   -24.0780 o          1 G03      -0.921500
      4 OAW        -31.9670     8.4930   -24.2300 o          1 G03      -0.921500
      5 OAS        -31.6080    11.0090   -23.8690 os         1 G03      -0.554200
      6 CAR        -30.2610    10.8870   -23.5180 c3         1 G03       0.250700
      7 CAQ        -29.6620    12.2390   -23.2430 ca         1 G03      -0.104600
      8 CAX        -28.6110    12.7060   -24.0160 ca         1 G03       0.334200
      9 NAY        -28.0180    13.8820   -23.8360 nb         1 G03      -0.680000
     10 CAB        -28.4430    14.6750   -22.8640 ca         1 G03       0.321600
     11 CAA        -27.7640    15.9960   -22.6720 c3         1 G03      -0.110400
     12 CAC        -29.5090    14.3010   -22.0310 ca         1 G03       0.037800
     13 OAD        -29.9000    15.1580   -21.0750 oh         1 G03      -0.555100
     14 CAE        -30.1340    13.0670   -22.2200 ca         1 G03      -0.130300
     15 CAF        -31.3110    12.6810   -21.3630 c3         1 G03       0.174100
     16 N          -31.1170    13.1150   -19.9770 n7         1 G03      -0.840200
     17 CA         -32.3200    13.0010   -19.1630 c3         1 G03       0.125500
     18 C          -32.1070    13.8060   -17.8960 c          1 G03       0.640100
     19 O          -31.0560    13.8780   -17.3130 o          1 G03      -0.558000
     20 OAN        -33.2200    14.3980   -17.4920 os         1 G03      -0.404900
     21 CAO        -33.1670    15.1410   -16.2730 c3         1 G03       0.128700
     22 CB         -32.6920    11.5490   -18.8180 c3         1 G03      -0.119400
     23 CG         -34.0500    11.3680   -18.1520 c3         1 G03       0.042700
     24 SD         -35.4580    11.9310   -19.1510 ss         1 G03      -0.434200
     25 CE         -35.5520    10.6020   -20.3760 c3         1 G03       0.009000
     26 H3         -30.1280    10.2620   -22.6230 h1         1 G03       0.010200
     27 H4         -29.6740    10.4050   -24.3130 h1         1 G03       0.010200
     28 H5         -28.2250    12.0920   -24.8240 h4         1 G03       0.009100
     29 H6         -26.9560    16.1080   -23.3930 hc         1 G03       0.025700
     30 H7         -28.4550    16.8310   -22.8030 hc         1 G03       0.025700
     31 H8         -27.3420    16.0900   -21.6690 hc         1 G03       0.025700
     32 H9         -30.4460    14.6230   -20.4310 ho         1 G03       0.472000
     33 H10        -32.2000    13.1980   -21.7420 h1         1 G03       0.108700
     34 H11        -33.1420    13.4460   -19.7290 h1         1 G03       0.111700
     35 H12        -34.1720    15.5210   -16.1120 h1         1 G03       0.035367
     36 H13        -32.8810    14.5080   -15.4330 h1         1 G03       0.035367
     37 H14        -32.4720    15.9770   -16.3480 h1         1 G03       0.035367
     38 H15        -32.6610    10.9550   -19.7350 hc         1 G03       0.092200
     39 H16        -31.9240    11.1320   -18.1590 hc         1 G03       0.092200
     40 H17        -34.2010    10.3140   -17.9120 h1         1 G03       0.048700
     41 H18        -34.1160    11.9120   -17.2090 h1         1 G03       0.048700
     42 H19        -36.3440    10.8660   -21.0760 h1         1 G03       0.086033
     43 H20        -34.6220    10.4810   -20.9300 h1         1 G03       0.086033
     44 H21        -35.8130     9.6580   -19.8990 h1         1 G03       0.086033
     45 H22        -31.5240    11.6150   -21.4450 h1         1 G03       0.108700
     46 H23        -30.3640    12.5790   -19.5570 hn         1 G03       0.368800
@<TRIPOS>BOND
     1     1     2 1   
     2     2     3 1   
     3     2     4 1   
     4     2     5 1   
     5     5     6 1   
     6     6     7 1   
     7     6    26 1   
     8     6    27 1   
     9     7     8 ar  
    10     7    14 ar  
    11     8     9 ar  
    12     8    28 1   
    13     9    10 ar  
    14    10    11 1   
    15    10    12 ar  
    16    11    29 1   
    17    11    30 1   
    18    11    31 1   
    19    12    13 1   
    20    12    14 ar  
    21    13    32 1   
    22    14    15 1   
    23    15    16 1   
    24    15    33 1   
    25    15    45 1   
    26    16    17 1   
    27    16    46 1   
    28    17    18 1   
    29    17    22 1   
    30    17    34 1   
    31    18    19 2   
    32    18    20 1   
    33    20    21 1   
    34    21    35 1   
    35    21    36 1   
    36    21    37 1   
    37    22    23 1   
    38    22    38 1   
    39    22    39 1   
    40    23    24 1   
    41    23    40 1   
    42    23    41 1   
    43    24    25 1   
    44    25    42 1   
    45    25    43 1   
    46    25    44 1   
@<TRIPOS>SUBSTRUCTURE
     1 G03         1 TEMP              0 ****  ****    0 ROOT
