@<TRIPOS>MOLECULE
G04
   81    84     1     0     0
SMALL
No Charge or Current Charge


@<TRIPOS>ATOM
      1 C2           2.9580     0.9520    -2.6820 ca         1 G04       0.196100
      2 C3           4.1310     1.0820    -1.9090 ca         1 G04      -0.199000
      3 C4           4.3860     0.1840    -0.8580 ca         1 G04       0.023500
      4 C5           3.4600    -0.8350    -0.5620 ca         1 G04      -0.341500
      5 C6           2.3000    -0.9810    -1.3490 ca         1 G04       0.023500
      6 C7           2.0570    -0.0850    -2.4030 ca         1 G04      -0.199000
      7 S8           3.7680    -1.9400     0.8280 sy         1 G04       1.193600
      8 O9           2.7430    -2.9890     0.8220 o          1 G04      -0.540500
      9 O10          5.2030    -2.2410     0.8370 o          1 G04      -0.540500
     10 N11          3.4760    -0.9570     2.2040 n3         1 G04      -0.777500
     11 C12          3.2010    -1.7000     3.4600 c3         1 G04       0.233800
     12 C13          4.3680    -2.5660     4.0120 c3         1 G04      -0.091700
     13 C14          5.6340    -1.7240     4.3060 c3         1 G04      -0.087600
     14 C15          3.9270    -3.3490     5.2700 c3         1 G04      -0.087600
     15 C16          2.5840     0.2220     2.0140 c3         1 G04       0.200800
     16 C17          1.0620    -0.0760     1.8000 c3         1 G04       0.140300
     17 O18          0.3750    -0.2140     3.0670 oh         1 G04      -0.645000
     18 C19          0.3510     0.9890     0.9090 c3         1 G04       0.092700
     19 N20         -1.0450     0.6050     0.6690 ns         1 G04      -0.481900
     20 C21         -1.6690     0.6060    -0.5460 c          1 G04       0.644100
     21 O22         -1.1380     0.8860    -1.6100 o          1 G04      -0.531000
     22 O23         -2.9660     0.2180    -0.3630 os         1 G04      -0.447100
     23 C24         -3.7570     0.1360    -1.5800 c5         1 G04       0.167300
     24 C25         -3.3600    -1.1160    -2.4090 c5         1 G04       0.122600
     25 O26         -4.5320    -1.3290    -3.2200 os         1 G04      -0.435000
     26 C27         -5.6860    -1.1610    -2.3740 c5         1 G04       0.374300
     27 O28         -5.9600    -2.4320    -1.7590 os         1 G04      -0.460000
     28 C29         -6.3620    -2.1780    -0.4040 c5         1 G04       0.120600
     29 C30         -5.3460    -1.1020     0.0570 c5         1 G04       0.143300
     30 C31         -5.2470    -0.1980    -1.2220 c5         1 G04      -0.132700
     31 C32          0.4290     2.4470     1.4370 c3         1 G04      -0.059100
     32 C33         -1.3440     4.0690     0.5880 ca         1 G04      -0.099000
     33 C34         -1.8210     4.9850    -0.3660 ca         1 G04      -0.105500
     34 C35         -1.0450     5.2920    -1.4970 ca         1 G04      -0.105000
     35 C36          0.2090     4.6820    -1.6730 ca         1 G04      -0.105500
     36 C37          0.6860     3.7680    -0.7180 ca         1 G04      -0.099000
     37 C38         -0.0880     3.4560     0.4170 ca         1 G04      -0.090300
     38 O39          2.6490     1.8130    -3.7150 os         1 G04      -0.335100
     39 C40          3.4710     2.9470    -4.0400 c3         1 G04       0.145900
     40 O41         -5.9440    -0.2900     1.0990 os         1 G04      -0.441000
     41 C42         -6.1510    -0.9140     2.3800 c3         1 G04       0.144900
     42 H3           4.8530     1.8690    -2.1050 ha         1 G04       0.127500
     43 H4           5.2890     0.2990    -0.2600 ha         1 G04       0.134000
     44 H6           1.5790    -1.7720    -1.1460 ha         1 G04       0.134000
     45 H7           1.1560    -0.1870    -3.0000 ha         1 G04       0.127500
     46 H12          2.9380    -0.9860     4.2530 h1         1 G04       0.063200
     47 H12A         2.3190    -2.3430     3.3280 h1         1 G04       0.063200
     48 H13          4.6340    -3.3160     3.2590 hc         1 G04       0.052700
     49 H14          6.4460    -2.3610     4.6760 hc         1 G04       0.036200
     50 H14A         5.9910    -1.2190     3.4000 hc         1 G04       0.036200
     51 H14B         5.4260    -0.9580     5.0630 hc         1 G04       0.036200
     52 H15          3.0610    -3.9850     5.0460 hc         1 G04       0.036200
     53 H15A         4.7370    -3.9960     5.6290 hc         1 G04       0.036200
     54 H15B         3.6490    -2.6640     6.0810 hc         1 G04       0.036200
     55 H16          2.6740     0.8750     2.8920 h1         1 G04       0.051700
     56 H16A         2.9440     0.8420     1.1850 h1         1 G04       0.051700
     57 H17          0.9880    -1.0220     1.2480 h1         1 G04       0.118700
     58 HO18         0.4300     0.6470     3.5330 ho         1 G04       0.433000
     59 H19          0.8710     0.9770    -0.0580 h1         1 G04       0.094700
     60 HN20        -1.6150     0.3250     1.4570 hn         1 G04       0.329500
     61 H24         -3.6770     1.0640    -2.1650 h1         1 G04       0.078700
     62 H25         -2.4850    -0.9500    -3.0510 h1         1 G04       0.072700
     63 H25A        -3.1840    -1.9970    -1.7770 h1         1 G04       0.072700
     64 H27         -6.5560    -0.7920    -2.9350 h2         1 G04       0.088700
     65 H29         -7.3950    -1.8030    -0.3950 h1         1 G04       0.056200
     66 H29A        -6.3050    -3.1020     0.1860 h1         1 G04       0.056200
     67 H30         -4.4000    -1.5510     0.3900 h1         1 G04       0.061700
     68 H31         -5.8820     0.6930    -1.1710 hc         1 G04       0.092700
     69 H32         -0.1330     2.5280     2.3750 hc         1 G04       0.047700
     70 H32A         1.4670     2.7000     1.6830 hc         1 G04       0.047700
     71 H34         -2.7930     5.4540    -0.2310 ha         1 G04       0.113500
     72 H35         -1.4150     5.9990    -2.2360 ha         1 G04       0.113000
     73 H36          0.8100     4.9160    -2.5490 ha         1 G04       0.113500
     74 H37          1.6550     3.2960    -0.8660 ha         1 G04       0.109000
     75 H40          3.5480     3.6300    -3.1840 h1         1 G04       0.046700
     76 H40A         4.4800     2.6280    -4.3300 h1         1 G04       0.046700
     77 H40B         3.0360     3.5030    -4.8800 h1         1 G04       0.046700
     78 H42         -6.8520    -1.7550     2.3010 h1         1 G04       0.032033
     79 H42A        -5.2030    -1.2860     2.7890 h1         1 G04       0.032033
     80 H42B        -6.5690    -0.1900     3.0910 h1         1 G04       0.032033
     81 H33         -1.9550     3.8330     1.4560 ha         1 G04       0.109000
@<TRIPOS>BOND
     1     1     2 ar  
     2     1     6 ar  
     3     1    38 1   
     4     2     3 ar  
     5     2    42 1   
     6     3     4 ar  
     7     3    43 1   
     8     4     5 ar  
     9     4     7 1   
    10     5     6 ar  
    11     5    44 1   
    12     6    45 1   
    13     7     8 2   
    14     7     9 2   
    15     7    10 1   
    16    10    11 1   
    17    10    15 1   
    18    11    12 1   
    19    11    46 1   
    20    11    47 1   
    21    12    13 1   
    22    12    14 1   
    23    12    48 1   
    24    13    49 1   
    25    13    50 1   
    26    13    51 1   
    27    14    52 1   
    28    14    53 1   
    29    14    54 1   
    30    15    16 1   
    31    15    55 1   
    32    15    56 1   
    33    16    17 1   
    34    16    18 1   
    35    16    57 1   
    36    17    58 1   
    37    18    19 1   
    38    18    31 1   
    39    18    59 1   
    40    19    20 1   
    41    19    60 1   
    42    20    21 2   
    43    20    22 1   
    44    22    23 1   
    45    23    24 1   
    46    23    30 1   
    47    23    61 1   
    48    24    25 1   
    49    24    62 1   
    50    24    63 1   
    51    25    26 1   
    52    26    27 1   
    53    26    30 1   
    54    26    64 1   
    55    27    28 1   
    56    28    29 1   
    57    28    65 1   
    58    28    66 1   
    59    29    30 1   
    60    29    40 1   
    61    29    67 1   
    62    30    68 1   
    63    31    37 1   
    64    31    69 1   
    65    31    70 1   
    66    32    33 ar  
    67    32    37 ar  
    68    32    81 1   
    69    33    34 ar  
    70    33    71 1   
    71    34    35 ar  
    72    34    72 1   
    73    35    36 ar  
    74    35    73 1   
    75    36    37 ar  
    76    36    74 1   
    77    38    39 1   
    78    39    75 1   
    79    39    76 1   
    80    39    77 1   
    81    40    41 1   
    82    41    78 1   
    83    41    79 1   
    84    41    80 1   
@<TRIPOS>SUBSTRUCTURE
     1 G04         1 TEMP              0 ****  ****    0 ROOT
