@<TRIPOS>MOLECULE
G04
   81    84     1     0     0
SMALL
abcg2


@<TRIPOS>ATOM
      1 C2           6.7800     0.7200    -1.7850 ca         1 G04       0.196100
      2 C3           7.1360    -0.2640    -0.8630 ca         1 G04      -0.199000
      3 C4           6.1610    -1.0790    -0.3120 ca         1 G04       0.023500
      4 C5           4.8310    -0.9190    -0.6690 ca         1 G04      -0.341500
      5 C6           4.4730     0.0450    -1.6100 ca         1 G04       0.023500
      6 C7           5.4390     0.8620    -2.1580 ca         1 G04      -0.199000
      7 S8           3.5830    -1.9190     0.0820 sy         1 G04       1.193600
      8 O9           2.5510    -2.1160    -0.9280 o          1 G04      -0.540500
      9 O10          4.2350    -3.0700     0.6870 o          1 G04      -0.540500
     10 N11          2.9110    -1.0520     1.2990 n3         1 G04      -0.777500
     11 C12          3.4290    -1.1510     2.6630 c3         1 G04       0.233800
     12 C13          4.7840    -0.4960     2.9280 c3         1 G04      -0.091700
     13 C14          4.8420     0.9640     2.4950 c3         1 G04      -0.087600
     14 C15          5.1070    -0.6380     4.4120 c3         1 G04      -0.087600
     15 C16          1.9470    -0.0110     0.9660 c3         1 G04       0.200800
     16 C17          0.5050    -0.5130     0.9980 c3         1 G04       0.140300
     17 O18          0.1220    -0.9520     2.2800 oh         1 G04      -0.645000
     18 C19         -0.4670     0.5220     0.4180 c3         1 G04       0.092700
     19 N20         -1.7940    -0.0490     0.3830 ns         1 G04      -0.481900
     20 C21         -2.6440     0.1540    -0.6420 c          1 G04       0.644100
     21 O22         -2.3500     0.5930    -1.7330 o          1 G04      -0.531000
     22 O23         -3.8820    -0.2340    -0.3030 os         1 G04      -0.447100
     23 C24         -4.9170    -0.0020    -1.2360 c5         1 G04       0.167300
     24 C25         -4.9550    -0.9840    -2.4060 c5         1 G04       0.122600
     25 O26         -6.2940    -0.8930    -2.8590 os         1 G04      -0.435000
     26 C27         -7.1380    -0.7150    -1.7630 c5         1 G04       0.374300
     27 O28         -7.7060    -1.9450    -1.3800 os         1 G04      -0.460000
     28 C29         -7.6650    -2.0590     0.0270 c5         1 G04       0.120600
     29 C30         -6.3520    -1.3790     0.4280 c5         1 G04       0.143300
     30 C31         -6.2770    -0.2330    -0.5830 c5         1 G04      -0.132700
     31 C32         -0.4720     1.8640     1.1750 c3         1 G04      -0.059100
     32 C33         -2.7720     2.8780     1.0450 ca         1 G04      -0.099000
     33 C34         -3.7100     3.7020     0.4370 ca         1 G04      -0.105500
     34 C35         -3.3440     4.4960    -0.6410 ca         1 G04      -0.105000
     35 C36         -2.0340     4.4620    -1.1040 ca         1 G04      -0.105500
     36 C37         -1.1040     3.6310    -0.4980 ca         1 G04      -0.099000
     37 C38         -1.4610     2.8250     0.5800 ca         1 G04      -0.090300
     38 O39          7.6460     1.5560    -2.3670 os         1 G04      -0.335100
     39 C40          9.0190     1.4660    -2.0270 c3         1 G04       0.145900
     40 O41         -6.3300    -0.8790     1.7330 os         1 G04      -0.441000
     41 C42         -6.2700    -1.8870     2.7130 c3         1 G04       0.144900
     42 H3           8.1640    -0.4150    -0.5650 ha         1 G04       0.127500
     43 H4           6.4580    -1.8450     0.3910 ha         1 G04       0.134000
     44 H6           3.4470     0.1590    -1.9320 ha         1 G04       0.134000
     45 H7           5.1640     1.6130    -2.8870 ha         1 G04       0.127500
     46 H12          2.6740    -0.6880     3.3000 h1         1 G04       0.063200
     47 H12A         3.4650    -2.2000     2.9590 h1         1 G04       0.063200
     48 H13          5.5500    -1.0470     2.3740 hc         1 G04       0.052700
     49 H14          5.8270     1.3820     2.7090 hc         1 G04       0.036200
     50 H14A         4.6680     1.0870     1.4250 hc         1 G04       0.036200
     51 H14B         4.1050     1.5690     3.0300 hc         1 G04       0.036200
     52 H15          5.0940    -1.6830     4.7290 hc         1 G04       0.036200
     53 H15A         6.0970    -0.2380     4.6330 hc         1 G04       0.036200
     54 H15B         4.3860    -0.0950     5.0270 hc         1 G04       0.036200
     55 H16          2.0920     0.8030     1.6790 h1         1 G04       0.051700
     56 H16A         2.1600     0.4220    -0.0140 h1         1 G04       0.051700
     57 H17          0.4450    -1.3940     0.3560 h1         1 G04       0.118700
     58 HO18         0.2080    -0.2280     2.9090 ho         1 G04       0.433000
     59 H19         -0.1630     0.7090    -0.6140 h1         1 G04       0.094700
     60 HN20        -2.1810    -0.3610     1.2610 hn         1 G04       0.329500
     61 H24         -4.8600     1.0220    -1.6160 h1         1 G04       0.078700
     62 H25         -4.2930    -0.7150    -3.2270 h1         1 G04       0.072700
     63 H25A        -4.7000    -1.9990    -2.0720 h1         1 G04       0.072700
     64 H27         -7.9260    -0.0170    -2.0610 h2         1 G04       0.088700
     65 H29         -8.5120    -1.5440     0.5010 h1         1 G04       0.056200
     66 H29A        -7.7150    -3.1160     0.2870 h1         1 G04       0.056200
     67 H30         -5.5280    -2.0920     0.2810 h1         1 G04       0.061700
     68 H31         -6.6780     0.6760    -0.1320 hc         1 G04       0.092700
     69 H32         -0.7190     1.6970     2.2280 hc         1 G04       0.047700
     70 H32A         0.5300     2.2970     1.1490 hc         1 G04       0.047700
     71 H34         -4.7260     3.7260     0.8090 ha         1 G04       0.113500
     72 H35         -4.0720     5.1420    -1.1150 ha         1 G04       0.113000
     73 H36         -1.7390     5.0830    -1.9400 ha         1 G04       0.113500
     74 H37         -0.0850     3.6050    -0.8690 ha         1 G04       0.109000
     75 H40          9.1860     1.6510    -0.9640 h1         1 G04       0.046700
     76 H40A         9.4380     0.4920    -2.2890 h1         1 G04       0.046700
     77 H40B         9.5270     2.2350    -2.6030 h1         1 G04       0.046700
     78 H42         -7.1680    -2.5150     2.7280 h1         1 G04       0.032033
     79 H42A        -5.4020    -2.5410     2.5720 h1         1 G04       0.032033
     80 H42B        -6.1810    -1.4010     3.6840 h1         1 G04       0.032033
     81 H33         -3.0660     2.2710     1.8930 ha         1 G04       0.109000
@<TRIPOS>BOND
     1     1     2 ar  
     2     1     6 ar  
     3     1    38 1   
     4     2     3 ar  
     5     2    42 1   
     6     3     4 ar  
     7     3    43 1   
     8     4     5 ar  
     9     4     7 1   
    10     5     6 ar  
    11     5    44 1   
    12     6    45 1   
    13     7     8 2   
    14     7     9 2   
    15     7    10 1   
    16    10    11 1   
    17    10    15 1   
    18    11    12 1   
    19    11    46 1   
    20    11    47 1   
    21    12    13 1   
    22    12    14 1   
    23    12    48 1   
    24    13    49 1   
    25    13    50 1   
    26    13    51 1   
    27    14    52 1   
    28    14    53 1   
    29    14    54 1   
    30    15    16 1   
    31    15    55 1   
    32    15    56 1   
    33    16    17 1   
    34    16    18 1   
    35    16    57 1   
    36    17    58 1   
    37    18    19 1   
    38    18    31 1   
    39    18    59 1   
    40    19    20 1   
    41    19    60 1   
    42    20    21 2   
    43    20    22 1   
    44    22    23 1   
    45    23    24 1   
    46    23    30 1   
    47    23    61 1   
    48    24    25 1   
    49    24    62 1   
    50    24    63 1   
    51    25    26 1   
    52    26    27 1   
    53    26    30 1   
    54    26    64 1   
    55    27    28 1   
    56    28    29 1   
    57    28    65 1   
    58    28    66 1   
    59    29    30 1   
    60    29    40 1   
    61    29    67 1   
    62    30    68 1   
    63    31    37 1   
    64    31    69 1   
    65    31    70 1   
    66    32    33 ar  
    67    32    37 ar  
    68    32    81 1   
    69    33    34 ar  
    70    33    71 1   
    71    34    35 ar  
    72    34    72 1   
    73    35    36 ar  
    74    35    73 1   
    75    36    37 ar  
    76    36    74 1   
    77    38    39 1   
    78    39    75 1   
    79    39    76 1   
    80    39    77 1   
    81    40    41 1   
    82    41    78 1   
    83    41    79 1   
    84    41    80 1   
@<TRIPOS>SUBSTRUCTURE
     1 G04         1 TEMP              0 ****  ****    0 ROOT
