@<TRIPOS>MOLECULE
G05
   80    83     1     0     0
SMALL
bcc


@<TRIPOS>ATOM
      1 C2          -1.5100    -2.7390     1.0980 ca         1 G05       0.195100
      2 O39         -0.4880    -3.5900     1.2230 os         1 G05      -0.309900
      3 C40         -0.3060    -4.5970     0.2440 c3         1 G05       0.121700
      4 C3          -1.5730    -1.7090     2.0400 ca         1 G05      -0.211000
      5 C4          -2.5620    -0.7520     1.9620 ca         1 G05       0.001500
      6 C5          -3.5100    -0.8200     0.9450 ca         1 G05      -0.342500
      7 C6          -3.4810    -1.8620     0.0290 ca         1 G05       0.001500
      8 C7          -2.4890    -2.8240     0.1030 ca         1 G05      -0.211000
      9 S8          -4.6210     0.5220     0.6790 sy         1 G05       1.340200
     10 O9          -5.9000     0.0080     0.2100 o          1 G05      -0.615300
     11 O10         -4.5980     1.3380     1.8870 o          1 G05      -0.615300
     12 N11         -3.9420     1.3520    -0.5650 n3         1 G05      -0.792500
     13 C12         -4.6320     1.5730    -1.8310 c3         1 G05       0.234800
     14 C13         -5.2500     2.9650    -1.9660 c3         1 G05      -0.078700
     15 C14         -5.8100     3.1180    -3.3770 c3         1 G05      -0.092100
     16 C15         -6.3230     3.2260    -0.9170 c3         1 G05      -0.092100
     17 C16         -2.5940     1.8720    -0.3830 c3         1 G05       0.193800
     18 C17         -1.4970     0.9540    -0.9380 c3         1 G05       0.100100
     19 O18         -1.3830     1.0170    -2.3430 oh         1 G05      -0.589800
     20 C19         -0.1540     1.1750    -0.2320 c3         1 G05       0.099700
     21 N20          0.7480     0.1090    -0.5880 ns         1 G05      -0.567900
     22 C21          1.4530    -0.5910     0.3240 c          1 G05       0.759100
     23 O22          1.4290    -0.4060     1.5220 o          1 G05      -0.592000
     24 O23          2.1830    -1.5380    -0.2740 os         1 G05      -0.423900
     25 C24          3.0370    -2.3160     0.5690 c5         1 G05       0.173100
     26 C25          3.5930    -3.4700    -0.2670 c5         1 G05      -0.103900
     27 C26          4.9040    -2.9660    -0.8340 c5         1 G05       0.107600
     28 O27          4.6350    -2.1060    -1.9210 os         1 G05      -0.390100
     29 C28          5.7760    -1.3620    -2.2870 c6         1 G05       0.093400
     30 C29          6.2390    -0.5100    -1.1270 c6         1 G05       0.093400
     31 O30          6.5320    -1.3080     0.0010 os         1 G05      -0.390100
     32 C31          5.4880    -2.1890     0.3510 c5         1 G05       0.107600
     33 C41          4.2730    -1.5230     1.0290 c5         1 G05      -0.103900
     34 C32          0.4660     2.5530    -0.5130 c3         1 G05      -0.049100
     35 C33          2.9720     2.4710    -0.2560 ca         1 G05      -0.116000
     36 C34          4.1230     2.6130     0.5080 ca         1 G05      -0.126000
     37 C35          4.0410     3.0490     1.8230 ca         1 G05      -0.121000
     38 C36          2.7980     3.3450     2.3690 ca         1 G05      -0.126000
     39 C37          1.6510     3.2000     1.6020 ca         1 G05      -0.116000
     40 C38          1.7220     2.7610     0.2830 ca         1 G05      -0.082300
     41 H40          0.5860    -5.1470     0.5330 h1         1 G05       0.045700
     42 H40A        -1.1490    -5.2900     0.2100 h1         1 G05       0.045700
     43 H40B        -0.1510    -4.1700    -0.7490 h1         1 G05       0.045700
     44 H3          -0.8220    -1.6510     2.8160 ha         1 G05       0.152000
     45 H4          -2.5790     0.0530     2.6840 ha         1 G05       0.153500
     46 H6          -4.2120    -1.9240    -0.7670 ha         1 G05       0.153500
     47 H7          -2.4810    -3.6170    -0.6320 ha         1 G05       0.152000
     48 H12         -3.9070     1.4130    -2.6310 h1         1 G05       0.063700
     49 H12A        -5.4040     0.8140    -1.9600 h1         1 G05       0.063700
     50 H13         -4.4540     3.7080    -1.8390 hc         1 G05       0.042700
     51 H14         -6.6100     2.3960    -3.5620 hc         1 G05       0.038533
     52 H14A        -6.2240     4.1150    -3.5270 hc         1 G05       0.038533
     53 H14B        -5.0400     2.9620    -4.1340 hc         1 G05       0.038533
     54 H15         -7.1340     2.4990    -0.9960 hc         1 G05       0.038533
     55 H15A        -5.9260     3.1780     0.0970 hc         1 G05       0.038533
     56 H15B        -6.7540     4.2200    -1.0480 hc         1 G05       0.038533
     57 H16         -2.5460     2.8610    -0.8490 h1         1 G05       0.062700
     58 H16A        -2.4170     2.0550     0.6790 h1         1 G05       0.062700
     59 H17         -1.7800    -0.0770    -0.7250 h1         1 G05       0.094700
     60 HO18        -1.2190     1.9280    -2.6100 ho         1 G05       0.401000
     61 H19         -0.3390     1.0890     0.8400 h1         1 G05       0.089700
     62 HN20         0.8730    -0.1010    -1.5660 hn         1 G05       0.335500
     63 H24          2.4530    -2.6880     1.4110 h1         1 G05       0.073700
     64 H25          3.8050    -4.3100     0.3980 hc         1 G05       0.068950
     65 H25A         2.8980    -3.8300    -1.0280 hc         1 G05       0.068950
     66 H26          5.5700    -3.7800    -1.1510 h1         1 G05       0.065200
     67 H28          6.5880    -2.0250    -2.6180 h1         1 G05       0.053950
     68 H28A         5.5010    -0.7270    -3.1310 h1         1 G05       0.053950
     69 H29          7.1530     0.0250    -1.3890 h1         1 G05       0.053950
     70 H29A         5.4690     0.2390    -0.8970 h1         1 G05       0.053950
     71 H31          5.9360    -2.9120     1.0370 h1         1 G05       0.065200
     72 H41          4.1860    -0.4720     0.7490 hc         1 G05       0.068950
     73 H41A         4.3740    -1.5460     2.1140 hc         1 G05       0.068950
     74 H32          0.6840     2.6500    -1.5800 hc         1 G05       0.049200
     75 H32A        -0.2630     3.3310    -0.2680 hc         1 G05       0.049200
     76 H34          5.0900     2.3900     0.0730 ha         1 G05       0.129500
     77 H35          4.9390     3.1620     2.4160 ha         1 G05       0.131000
     78 H36          2.7230     3.6920     3.3920 ha         1 G05       0.129500
     79 H37          0.6840     3.4300     2.0360 ha         1 G05       0.126500
     80 H33          3.0480     2.1370    -1.2840 ha         1 G05       0.126500
@<TRIPOS>BOND
     1     1     2 1   
     2     1     4 ar  
     3     1     8 ar  
     4     2     3 1   
     5     3    41 1   
     6     3    42 1   
     7     3    43 1   
     8     4     5 ar  
     9     4    44 1   
    10     5     6 ar  
    11     5    45 1   
    12     6     7 ar  
    13     6     9 1   
    14     7     8 ar  
    15     7    46 1   
    16     8    47 1   
    17     9    10 2   
    18     9    11 2   
    19     9    12 1   
    20    12    13 1   
    21    12    17 1   
    22    13    14 1   
    23    13    48 1   
    24    13    49 1   
    25    14    15 1   
    26    14    16 1   
    27    14    50 1   
    28    15    51 1   
    29    15    52 1   
    30    15    53 1   
    31    16    54 1   
    32    16    55 1   
    33    16    56 1   
    34    17    18 1   
    35    17    57 1   
    36    17    58 1   
    37    18    19 1   
    38    18    20 1   
    39    18    59 1   
    40    19    60 1   
    41    20    21 1   
    42    20    34 1   
    43    20    61 1   
    44    21    22 1   
    45    21    62 1   
    46    22    23 2   
    47    22    24 1   
    48    24    25 1   
    49    25    26 1   
    50    25    33 1   
    51    25    63 1   
    52    26    27 1   
    53    26    64 1   
    54    26    65 1   
    55    27    28 1   
    56    27    32 1   
    57    27    66 1   
    58    28    29 1   
    59    29    30 1   
    60    29    67 1   
    61    29    68 1   
    62    30    31 1   
    63    30    69 1   
    64    30    70 1   
    65    31    32 1   
    66    32    33 1   
    67    32    71 1   
    68    33    72 1   
    69    33    73 1   
    70    34    40 1   
    71    34    74 1   
    72    34    75 1   
    73    35    36 ar  
    74    35    40 ar  
    75    35    80 1   
    76    36    37 ar  
    77    36    76 1   
    78    37    38 ar  
    79    37    77 1   
    80    38    39 ar  
    81    38    78 1   
    82    39    40 ar  
    83    39    79 1   
@<TRIPOS>SUBSTRUCTURE
     1 G05         1 TEMP              0 ****  ****    0 ROOT
