@<TRIPOS>MOLECULE
G05
   80    83     1     0     0
SMALL
No Charge or Current Charge


@<TRIPOS>ATOM
      1 C2          -1.7790    -1.3050     3.2650 ca         1 G05       0.195100
      2 O39         -0.8290    -1.4680     4.2520 os         1 G05      -0.333100
      3 C40          0.3700    -2.2340     4.0380 c3         1 G05       0.144900
      4 C3          -2.8410    -0.4230     3.5160 ca         1 G05      -0.193000
      5 C4          -3.8160    -0.1820     2.5340 ca         1 G05       0.019500
      6 C5          -3.7220    -0.8230     1.2830 ca         1 G05      -0.342500
      7 C6          -2.6800    -1.7390     1.0390 ca         1 G05       0.019500
      8 C7          -1.7100    -1.9760     2.0270 ca         1 G05      -0.193000
      9 S8          -4.9140    -0.4350    -0.0110 sy         1 G05       1.198600
     10 O9          -4.6930    -1.3400    -1.1440 o          1 G05      -0.544500
     11 O10         -6.2260    -0.2740     0.6240 o          1 G05      -0.544500
     12 N11         -4.4530     1.1310    -0.5230 n3         1 G05      -0.792500
     13 C12         -5.0490     1.5110    -1.8280 c3         1 G05       0.234800
     14 C13         -5.0890     3.0360    -2.1290 c3         1 G05      -0.078700
     15 C14         -5.7110     3.3090    -3.5170 c3         1 G05      -0.092100
     16 C15         -5.8240     3.8370    -1.0260 c3         1 G05      -0.092100
     17 C16         -3.0260     1.5240    -0.3230 c3         1 G05       0.193800
     18 C17         -1.9630     0.8160    -1.2290 c3         1 G05       0.123300
     19 O18         -1.8120     1.5000    -2.4970 oh         1 G05      -0.652000
     20 C19         -0.5800     0.6570    -0.5250 c3         1 G05       0.099700
     21 N20          0.3490    -0.1070    -1.3670 ns         1 G05      -0.500900
     22 C21          1.1550    -1.1160    -0.9260 c          1 G05       0.643100
     23 O22          1.1100    -1.6160     0.1880 o          1 G05      -0.543000
     24 O23          2.0150    -1.4520    -1.9330 os         1 G05      -0.447100
     25 C24          3.0760    -2.3590    -1.5430 c5         1 G05       0.196300
     26 C25          3.8610    -2.7480    -2.8410 c5         1 G05      -0.103900
     27 C26          5.3700    -2.6060    -2.4620 c5         1 G05       0.130800
     28 O27          5.8420    -1.3700    -3.0700 os         1 G05      -0.436500
     29 C28          7.0940    -0.8560    -2.5780 c6         1 G05       0.116600
     30 C29          7.0520    -0.6720    -1.0420 c6         1 G05       0.116600
     31 O30          6.5480    -1.8520    -0.3740 os         1 G05      -0.436500
     32 C31          5.3430    -2.4900    -0.8980 c5         1 G05       0.130800
     33 C41          4.1120    -1.5780    -0.6850 c5         1 G05      -0.103900
     34 C32          0.0810     1.9830    -0.0600 c3         1 G05      -0.049100
     35 C33          2.6250     2.0040     0.1160 ca         1 G05      -0.098000
     36 C34          3.8140     1.7510     0.8210 ca         1 G05      -0.108000
     37 C35          3.7620     1.2330     2.1260 ca         1 G05      -0.103000
     38 C36          2.5190     0.9720     2.7270 ca         1 G05      -0.108000
     39 C37          1.3300     1.2270     2.0230 ca         1 G05      -0.098000
     40 C38          1.3750     1.7430     0.7130 ca         1 G05      -0.082300
     41 H40          1.0030    -2.2060     4.9330 h1         1 G05       0.045700
     42 H40A         0.1310    -3.2830     3.8240 h1         1 G05       0.045700
     43 H40B         0.9480    -1.8250     3.1990 h1         1 G05       0.045700
     44 H3          -2.8990     0.0900     4.4720 ha         1 G05       0.134000
     45 H4          -4.6200     0.5250     2.7340 ha         1 G05       0.135500
     46 H6          -2.5990    -2.2530     0.0830 ha         1 G05       0.135500
     47 H7          -0.9070    -2.6720     1.8070 ha         1 G05       0.134000
     48 H12         -4.5170     1.0040    -2.6450 h1         1 G05       0.063700
     49 H12A        -6.0890     1.1560    -1.8710 h1         1 G05       0.063700
     50 H13         -4.0580     3.4060    -2.1750 hc         1 G05       0.042700
     51 H14         -6.7550     2.9740    -3.5510 hc         1 G05       0.038533
     52 H14A        -5.6870     4.3800    -3.7500 hc         1 G05       0.038533
     53 H14B        -5.1560     2.7810    -4.3010 hc         1 G05       0.038533
     54 H15         -6.8630     3.4990    -0.9260 hc         1 G05       0.038533
     55 H15A        -5.3290     3.7130    -0.0550 hc         1 G05       0.038533
     56 H15B        -5.8310     4.9070    -1.2640 hc         1 G05       0.038533
     57 H16         -2.9190     2.6070    -0.4630 h1         1 G05       0.062700
     58 H16A        -2.7420     1.3740     0.7250 h1         1 G05       0.062700
     59 H17         -2.3200    -0.2040    -1.4170 h1         1 G05       0.094700
     60 HO18        -1.5020     2.4110    -2.3110 ho         1 G05       0.440000
     61 H19         -0.7630     0.0670     0.3820 h1         1 G05       0.089700
     62 HN20         0.4880     0.1850    -2.3250 hn         1 G05       0.335500
     63 H24          2.6740    -3.2470    -1.0320 h1         1 G05       0.073700
     64 H25          3.6260    -3.7770    -3.1350 hc         1 G05       0.068950
     65 H25A         3.5970    -2.1130    -3.6940 hc         1 G05       0.068950
     66 H26          5.9840    -3.4460    -2.8140 h1         1 G05       0.065200
     67 H28          7.8970    -1.5590    -2.8430 h1         1 G05       0.053950
     68 H28A         7.3080     0.1050    -3.0670 h1         1 G05       0.053950
     69 H29          8.0590    -0.4480    -0.6630 h1         1 G05       0.053950
     70 H29A         6.4080     0.1830    -0.7940 h1         1 G05       0.053950
     71 H31          5.2110    -3.4700    -0.4180 h1         1 G05       0.065200
     72 H41          4.2550    -0.5580    -1.0560 hc         1 G05       0.068950
     73 H41A         3.8240    -1.5170     0.3700 hc         1 G05       0.068950
     74 H32          0.2730     2.6220    -0.9310 hc         1 G05       0.049200
     75 H32A        -0.6140     2.5400     0.5790 hc         1 G05       0.049200
     76 H34          4.7760     1.9520     0.3540 ha         1 G05       0.111500
     77 H35          4.6830     1.0330     2.6700 ha         1 G05       0.113000
     78 H36          2.4770     0.5690     3.7370 ha         1 G05       0.111500
     79 H37          0.3720     1.0140     2.4930 ha         1 G05       0.108500
     80 H33          2.6770     2.3940    -0.8980 ha         1 G05       0.108500
@<TRIPOS>BOND
     1     1     2 1   
     2     1     4 ar  
     3     1     8 ar  
     4     2     3 1   
     5     3    41 1   
     6     3    42 1   
     7     3    43 1   
     8     4     5 ar  
     9     4    44 1   
    10     5     6 ar  
    11     5    45 1   
    12     6     7 ar  
    13     6     9 1   
    14     7     8 ar  
    15     7    46 1   
    16     8    47 1   
    17     9    10 2   
    18     9    11 2   
    19     9    12 1   
    20    12    13 1   
    21    12    17 1   
    22    13    14 1   
    23    13    48 1   
    24    13    49 1   
    25    14    15 1   
    26    14    16 1   
    27    14    50 1   
    28    15    51 1   
    29    15    52 1   
    30    15    53 1   
    31    16    54 1   
    32    16    55 1   
    33    16    56 1   
    34    17    18 1   
    35    17    57 1   
    36    17    58 1   
    37    18    19 1   
    38    18    20 1   
    39    18    59 1   
    40    19    60 1   
    41    20    21 1   
    42    20    34 1   
    43    20    61 1   
    44    21    22 1   
    45    21    62 1   
    46    22    23 2   
    47    22    24 1   
    48    24    25 1   
    49    25    26 1   
    50    25    33 1   
    51    25    63 1   
    52    26    27 1   
    53    26    64 1   
    54    26    65 1   
    55    27    28 1   
    56    27    32 1   
    57    27    66 1   
    58    28    29 1   
    59    29    30 1   
    60    29    67 1   
    61    29    68 1   
    62    30    31 1   
    63    30    69 1   
    64    30    70 1   
    65    31    32 1   
    66    32    33 1   
    67    32    71 1   
    68    33    72 1   
    69    33    73 1   
    70    34    40 1   
    71    34    74 1   
    72    34    75 1   
    73    35    36 ar  
    74    35    40 ar  
    75    35    80 1   
    76    36    37 ar  
    77    36    76 1   
    78    37    38 ar  
    79    37    77 1   
    80    38    39 ar  
    81    38    78 1   
    82    39    40 ar  
    83    39    79 1   
@<TRIPOS>SUBSTRUCTURE
     1 G05         1 TEMP              0 ****  ****    0 ROOT
