@<TRIPOS>MOLECULE
G06
   44    44     1     0     0
SMALL
No Charge or Current Charge


@<TRIPOS>ATOM
      1 OAU         35.7570     9.1890    -5.7220 o          1 G06      -0.915500
      2 PAT         36.0850     9.4640    -4.2990 p5         1 G06       1.255900
      3 OAV         37.5560     9.3690    -4.1020 o          1 G06      -0.915500
      4 OAW         35.4030     8.4820    -3.4130 o          1 G06      -0.915500
      5 OAS         35.6110    10.9510    -3.9210 os         1 G06      -0.574400
      6 CAR         34.2180    11.2600    -4.0110 c3         1 G06       0.266900
      7 CAQ         34.0120    12.7490    -3.7420 ca         1 G06      -0.019300
      8 CAX         33.2190    13.1250    -2.6400 ca         1 G06       0.267900
      9 NAY         32.9660    14.4090    -2.3020 nb         1 G06      -0.666000
     10 CAB         33.5090    15.3810    -3.0690 ca         1 G06       0.198300
     11 CAA         33.1800    16.8090    -2.6450 c3         1 G06      -0.130400
     12 CAC         34.3260    15.1110    -4.2030 ca         1 G06       0.114100
     13 OAD         34.8080    16.1470    -4.9640 oh         1 G06      -0.504100
     14 CAE         34.5870    13.7610    -4.5580 ca         1 G06      -0.136900
     15 CAF         35.4800    13.3730    -5.7010 ce         1 G06       0.534800
     16 N           36.5430    14.0520    -6.0290 n2         1 G06      -0.630900
     17 CA          37.4470    13.6220    -7.1330 c3         1 G06       0.084500
     18 C           36.7540    13.5250    -8.5340 c          1 G06       0.573100
     19 O           35.5870    13.1890    -8.7060 o          1 G06      -0.469000
     20 OAN         37.5840    13.9400    -9.5470 os         1 G06      -0.445100
     21 CAO         37.0740    13.9280   -10.8910 c3         1 G06       0.152900
     22 CB          38.1830    12.3110    -6.7350 c3         1 G06      -0.118400
     23 CG          39.3260    11.8810    -7.6860 c3         1 G06       0.106600
     24 SD          40.7090    13.1210    -7.7180 ss         1 G06      -0.533000
     25 CE          41.4990    12.7970    -6.0730 c3         1 G06       0.057900
     26 H3          33.6480    10.6720    -3.2800 h1         1 G06       0.018700
     27 H4          33.8240    11.0200    -5.0080 h1         1 G06       0.018700
     28 H5          32.7660    12.3690    -2.0000 h4         1 G06       0.018100
     29 H6          32.5550    16.8380    -1.7430 hc         1 G06       0.027700
     30 H7          34.0930    17.3740    -2.4250 hc         1 G06       0.027700
     31 H8          32.6350    17.3380    -3.4360 hc         1 G06       0.027700
     32 H9          34.5290    16.9930    -4.5570 ho         1 G06       0.437000
     33 H10         35.2530    12.4210    -6.1880 h4         1 G06       0.066800
     34 H11         38.2160    14.3980    -7.2510 h1         1 G06       0.076700
     35 H12         37.8430    14.2780   -11.5920 h1         1 G06       0.032033
     36 H13         36.7790    12.9130   -11.1880 h1         1 G06       0.032033
     37 H14         36.2020    14.5870   -10.9850 h1         1 G06       0.032033
     38 H15         37.4580    11.4900    -6.6870 hc         1 G06       0.120700
     39 H16         38.5870    12.4170    -5.7220 hc         1 G06       0.120700
     40 H17         38.9350    11.7530    -8.7040 h1         1 G06       0.073200
     41 H18         39.7260    10.9110    -7.3620 h1         1 G06       0.073200
     42 H19         42.4010    13.4140    -5.9690 h1         1 G06       0.052700
     43 H20         40.8040    13.0470    -5.2620 h1         1 G06       0.052700
     44 H21         41.7810    11.7390    -5.9940 h1         1 G06       0.052700
@<TRIPOS>BOND
     1     1     2 1   
     2     2     3 1   
     3     2     4 1   
     4     2     5 1   
     5     5     6 1   
     6     6     7 1   
     7     6    26 1   
     8     6    27 1   
     9     7     8 ar  
    10     7    14 ar  
    11     8     9 ar  
    12     8    28 1   
    13     9    10 ar  
    14    10    11 1   
    15    10    12 ar  
    16    11    29 1   
    17    11    30 1   
    18    11    31 1   
    19    12    13 1   
    20    12    14 ar  
    21    13    32 1   
    22    14    15 1   
    23    15    16 2   
    24    15    33 1   
    25    16    17 1   
    26    17    18 1   
    27    17    22 1   
    28    17    34 1   
    29    18    19 2   
    30    18    20 1   
    31    20    21 1   
    32    21    35 1   
    33    21    36 1   
    34    21    37 1   
    35    22    23 1   
    36    22    38 1   
    37    22    39 1   
    38    23    24 1   
    39    23    40 1   
    40    23    41 1   
    41    24    25 1   
    42    25    42 1   
    43    25    43 1   
    44    25    44 1   
@<TRIPOS>SUBSTRUCTURE
     1 G06         1 TEMP              0 ****  ****    0 ROOT
