@<TRIPOS>MOLECULE
G06
   44    44     1     0     0
SMALL
abcg2


@<TRIPOS>ATOM
      1 OAU         35.9380     9.6740    -6.0130 o          1 G06      -0.915500
      2 PAT         36.0520     9.4350    -4.5040 p5         1 G06       1.255900
      3 OAV         37.4730     9.3580    -3.9670 o          1 G06      -0.915500
      4 OAW         35.0800     8.3880    -3.9710 o          1 G06      -0.915500
      5 OAS         35.5230    10.9130    -3.7970 os         1 G06      -0.574400
      6 CAR         34.2020    11.2760    -4.0540 c3         1 G06       0.266900
      7 CAQ         34.0130    12.7450    -3.7880 ca         1 G06      -0.019300
      8 CAX         33.1170    13.1460    -2.8140 ca         1 G06       0.267900
      9 NAY         32.8850    14.4140    -2.5000 nb         1 G06      -0.666000
     10 CAB         33.5360    15.3670    -3.1420 ca         1 G06       0.198300
     11 CAA         33.2530    16.7900    -2.7590 c3         1 G06      -0.130400
     12 CAC         34.4740    15.0700    -4.1490 ca         1 G06       0.114100
     13 OAD         35.1110    16.0540    -4.8010 oh         1 G06      -0.504100
     14 CAE         34.7310    13.7350    -4.4800 ca         1 G06      -0.136900
     15 CAF         35.6840    13.3160    -5.5250 ce         1 G06       0.534800
     16 N           36.6010    14.0780    -5.9550 n2         1 G06      -0.630900
     17 CA          37.4920    13.5980    -6.9910 c3         1 G06       0.084500
     18 C           36.7620    13.4730    -8.3220 c          1 G06       0.573100
     19 O           35.6680    12.9910    -8.4640 o          1 G06      -0.469000
     20 OAN         37.4950    13.9430    -9.3200 os         1 G06      -0.445100
     21 CAO         36.9660    13.8320   -10.6420 c3         1 G06       0.152900
     22 CB          38.1870    12.2710    -6.6410 c3         1 G06      -0.118400
     23 CG          39.2570    11.8220    -7.6250 c3         1 G06       0.106600
     24 SD          40.6000    13.0060    -7.9280 ss         1 G06      -0.533000
     25 CE          41.3960    13.0340    -6.3060 c3         1 G06       0.057900
     26 H3          33.4910    10.7230    -3.4240 h1         1 G06       0.018700
     27 H4          33.9100    11.0620    -5.0930 h1         1 G06       0.018700
     28 H5          32.5620    12.4010    -2.2530 h4         1 G06       0.018100
     29 H6          32.5270    16.8110    -1.9500 hc         1 G06       0.027700
     30 H7          34.1490    17.3110    -2.4120 hc         1 G06       0.027700
     31 H8          32.8360    17.3700    -3.5870 hc         1 G06       0.027700
     32 H9          34.7630    16.9150    -4.5450 ho         1 G06       0.437000
     33 H10         35.5490    12.2960    -5.8820 h4         1 G06       0.066800
     34 H11         38.2710    14.3540    -7.1150 h1         1 G06       0.076700
     35 H12         37.7100    14.2730   -11.2980 h1         1 G06       0.032033
     36 H13         36.8090    12.7910   -10.9210 h1         1 G06       0.032033
     37 H14         36.0280    14.3780   -10.7410 h1         1 G06       0.032033
     38 H15         37.4560    11.4610    -6.5510 hc         1 G06       0.120700
     39 H16         38.6290    12.3940    -5.6490 hc         1 G06       0.120700
     40 H17         38.8370    11.6070    -8.6100 h1         1 G06       0.073200
     41 H18         39.6990    10.8900    -7.2700 h1         1 G06       0.073200
     42 H19         42.2960    13.6400    -6.3970 h1         1 G06       0.052700
     43 H20         40.7580    13.4820    -5.5460 h1         1 G06       0.052700
     44 H21         41.6830    12.0310    -5.9940 h1         1 G06       0.052700
@<TRIPOS>BOND
     1     1     2 1   
     2     2     3 1   
     3     2     4 1   
     4     2     5 1   
     5     5     6 1   
     6     6     7 1   
     7     6    26 1   
     8     6    27 1   
     9     7     8 ar  
    10     7    14 ar  
    11     8     9 ar  
    12     8    28 1   
    13     9    10 ar  
    14    10    11 1   
    15    10    12 ar  
    16    11    29 1   
    17    11    30 1   
    18    11    31 1   
    19    12    13 1   
    20    12    14 ar  
    21    13    32 1   
    22    14    15 1   
    23    15    16 2   
    24    15    33 1   
    25    16    17 1   
    26    17    18 1   
    27    17    22 1   
    28    17    34 1   
    29    18    19 2   
    30    18    20 1   
    31    20    21 1   
    32    21    35 1   
    33    21    36 1   
    34    21    37 1   
    35    22    23 1   
    36    22    38 1   
    37    22    39 1   
    38    23    24 1   
    39    23    40 1   
    40    23    41 1   
    41    24    25 1   
    42    25    42 1   
    43    25    43 1   
    44    25    44 1   
@<TRIPOS>SUBSTRUCTURE
     1 G06         1 TEMP              0 ****  ****    0 ROOT
