@<TRIPOS>MOLECULE
G07
   75    78     1     0     0
SMALL
No Charge or Current Charge


@<TRIPOS>ATOM
      1 O22          3.2810    -1.7410     0.2110 o          1 G07      -0.549000
      2 C21          3.0430    -0.6540    -0.2930 c          1 G07       0.640100
      3 O23          3.9600     0.2390    -0.7720 os         1 G07      -0.451100
      4 C24          5.3490    -0.1930    -0.6730 c5         1 G07       0.165300
      5 C31          6.3420     0.9710    -1.0620 c5         1 G07      -0.132700
      6 C30          5.6490     2.3800    -1.1080 c5         1 G07      -0.093400
      7 C29          5.1710     2.4380    -2.5810 c5         1 G07       0.153600
      8 O28          6.2870     1.8620    -3.2860 os         1 G07      -0.446000
      9 C27          6.6900     0.6860    -2.5600 c5         1 G07       0.374300
     10 O26          5.8450    -0.4060    -2.9650 os         1 G07      -0.461000
     11 C25          5.6370    -1.2280    -1.8010 c5         1 G07       0.135600
     12 N20          1.7980    -0.1210    -0.4610 ns         1 G07      -0.477900
     13 C19          0.5440    -0.7260     0.0060 c3         1 G07       0.088700
     14 C32          0.0620    -0.0210     1.3080 c3         1 G07      -0.068100
     15 C38          1.1030    -0.0510     2.4210 ca         1 G07      -0.075300
     16 C37          1.2450    -1.1980     3.2250 ca         1 G07      -0.098000
     17 C36          2.2130    -1.2340     4.2450 ca         1 G07      -0.111000
     18 C35          3.0440    -0.1230     4.4650 ca         1 G07      -0.115000
     19 C34          2.9070     1.0240     3.6660 ca         1 G07      -0.111000
     20 C33          1.9390     1.0610     2.6480 ca         1 G07      -0.098000
     21 C17         -0.5010    -0.7520    -1.1520 c3         1 G07       0.148300
     22 O18         -0.9520     0.5750    -1.4680 oh         1 G07      -0.648000
     23 C16         -1.7580    -1.6250    -0.8700 c3         1 G07       0.199800
     24 N11         -2.9850    -1.0910    -1.5360 n3         1 G07      -0.789500
     25 C12         -3.0990    -1.2820    -3.0080 c3         1 G07       0.245800
     26 C13         -3.6640    -2.6350    -3.5440 c3         1 G07      -0.090700
     27 C15         -3.8170    -2.5760    -5.0820 c3         1 G07      -0.084600
     28 C14         -2.8450    -3.8830    -3.1350 c3         1 G07      -0.084600
     29 S8          -4.4300    -1.1900    -0.6380 sy         1 G07       1.191600
     30 O9          -5.3740    -0.2940    -1.3150 o          1 G07      -0.564000
     31 O10         -4.7220    -2.6100    -0.4150 o          1 G07      -0.564000
     32 C5          -3.9560    -0.3840     0.9080 ca         1 G07      -0.316500
     33 C4          -3.6630     0.9930     0.9210 ca         1 G07      -0.054500
     34 C3          -3.2560     1.6200     2.1110 ca         1 G07      -0.113500
     35 C6          -3.8380    -1.1270     2.1000 ca         1 G07      -0.054500
     36 C7          -3.4320    -0.4970     3.2890 ca         1 G07      -0.113500
     37 C2          -3.1340     0.8860     3.3140 ca         1 G07      -0.082600
     38 C1          -2.6930     1.5670     4.6040 c          1 G07       0.708600
     39 O1          -2.6240     0.8980     5.6270 o          1 G07      -0.705500
     40 O2          -2.4390     2.7640     4.5780 o          1 G07      -0.705500
     41 H3           5.5520    -0.5830     0.3340 h1         1 G07       0.082700
     42 H4           7.2370     0.9650    -0.4310 hc         1 G07       0.070700
     43 H5           4.8430     2.5190    -0.3790 hc         1 G07       0.060700
     44 H6           6.3790     3.1750    -0.9190 hc         1 G07       0.060700
     45 H7           4.2720     1.8320    -2.7590 h1         1 G07       0.061200
     46 H8           4.9860     3.4620    -2.9320 h1         1 G07       0.061200
     47 H9           7.7510     0.4470    -2.7170 h2         1 G07       0.072700
     48 H10          6.5520    -1.8010    -1.5960 h1         1 G07       0.059700
     49 H11          4.8130    -1.9310    -1.9780 h1         1 G07       0.059700
     50 H12          1.7600     0.7870    -0.9030 hn         1 G07       0.333500
     51 H14          0.7540    -1.7740     0.2630 h1         1 G07       0.081700
     52 H15         -0.2080     1.0170     1.0790 hc         1 G07       0.067200
     53 H16         -0.8570    -0.4920     1.6700 hc         1 G07       0.067200
     54 H17          0.6080    -2.0640     3.0580 ha         1 G07       0.114000
     55 H18          2.3180    -2.1230     4.8620 ha         1 G07       0.107000
     56 H19          3.7930    -0.1520     5.2530 ha         1 G07       0.104000
     57 H20          3.5510     1.8850     3.8350 ha         1 G07       0.107000
     58 H21          1.8430     1.9510     2.0310 ha         1 G07       0.114000
     59 H22         -0.0120    -1.1840    -2.0360 h1         1 G07       0.079700
     60 H23         -1.9240     0.4300    -1.5930 ho         1 G07       0.464000
     61 H24         -1.5430    -2.6530    -1.1800 h1         1 G07       0.055200
     62 H25         -1.9000    -1.6790     0.2130 h1         1 G07       0.055200
     63 H26         -3.7410    -0.4850    -3.4070 h1         1 G07       0.055200
     64 H27         -2.1160    -1.1250    -3.4720 h1         1 G07       0.055200
     65 H28         -4.6750    -2.7630    -3.1420 hc         1 G07       0.068700
     66 H29         -2.8410    -2.4620    -5.5680 hc         1 G07       0.031867
     67 H30         -4.2850    -3.4920    -5.4630 hc         1 G07       0.031867
     68 H31         -4.4490    -1.7300    -5.3780 hc         1 G07       0.031867
     69 H32         -1.7850    -3.7590    -3.3900 hc         1 G07       0.031867
     70 H33         -2.9310    -4.0760    -2.0600 hc         1 G07       0.031867
     71 H34         -3.2170    -4.7770    -3.6510 hc         1 G07       0.031867
     72 H35         -3.7410     1.5790     0.0070 ha         1 G07       0.113000
     73 H36         -3.0320     2.6840     2.0940 ha         1 G07       0.136500
     74 H37         -4.0530    -2.1940     2.1100 ha         1 G07       0.113000
     75 H38         -3.3470    -1.0920     4.1960 ha         1 G07       0.136500
@<TRIPOS>BOND
     1     1     2 2   
     2     2     3 1   
     3     2    12 1   
     4     3     4 1   
     5     4     5 1   
     6     4    11 1   
     7     4    41 1   
     8     5     6 1   
     9     5     9 1   
    10     5    42 1   
    11     6     7 1   
    12     6    43 1   
    13     6    44 1   
    14     7     8 1   
    15     7    45 1   
    16     7    46 1   
    17     8     9 1   
    18     9    10 1   
    19     9    47 1   
    20    10    11 1   
    21    11    48 1   
    22    11    49 1   
    23    12    13 1   
    24    12    50 1   
    25    13    14 1   
    26    13    21 1   
    27    13    51 1   
    28    14    15 1   
    29    14    52 1   
    30    14    53 1   
    31    15    16 ar  
    32    15    20 ar  
    33    16    17 ar  
    34    16    54 1   
    35    17    18 ar  
    36    17    55 1   
    37    18    19 ar  
    38    18    56 1   
    39    19    20 ar  
    40    19    57 1   
    41    20    58 1   
    42    21    22 1   
    43    21    23 1   
    44    21    59 1   
    45    22    60 1   
    46    23    24 1   
    47    23    61 1   
    48    23    62 1   
    49    24    25 1   
    50    24    29 1   
    51    25    26 1   
    52    25    63 1   
    53    25    64 1   
    54    26    27 1   
    55    26    28 1   
    56    26    65 1   
    57    27    66 1   
    58    27    67 1   
    59    27    68 1   
    60    28    69 1   
    61    28    70 1   
    62    28    71 1   
    63    29    30 2   
    64    29    31 2   
    65    29    32 1   
    66    32    33 ar  
    67    32    35 ar  
    68    33    34 ar  
    69    33    72 1   
    70    34    37 ar  
    71    34    73 1   
    72    35    36 ar  
    73    35    74 1   
    74    36    37 ar  
    75    36    75 1   
    76    37    38 1   
    77    38    39 1   
    78    38    40 1   
@<TRIPOS>SUBSTRUCTURE
     1 G07         1 TEMP              0 ****  ****    0 ROOT
