@<TRIPOS>MOLECULE
G07
   75    78     1     0     0
SMALL
bcc


@<TRIPOS>ATOM
      1 O22          3.2150    -1.9780    -0.5180 o          1 G07      -0.598000
      2 C21          2.8950    -0.8110    -0.5760 c          1 G07       0.756100
      3 O23          3.7590     0.1950    -0.7570 os         1 G07      -0.427900
      4 C24          5.1470    -0.1200    -0.8020 c5         1 G07       0.142100
      5 C31          5.9610     1.1470    -0.5220 c5         1 G07      -0.132700
      6 C30          5.2500     2.3090     0.1660 c5         1 G07      -0.093400
      7 C29          4.7080     3.1140    -1.0080 c5         1 G07       0.130400
      8 O28          5.6820     2.9540    -2.0370 os         1 G07      -0.399600
      9 C27          6.2820     1.7070    -1.9260 c5         1 G07       0.327900
     10 O26          5.7360     0.7980    -2.8560 os         1 G07      -0.414600
     11 C25          5.5820    -0.4540    -2.2180 c5         1 G07       0.112400
     12 N20          1.6330    -0.3370    -0.5010 ns         1 G07      -0.544900
     13 C19          0.5410    -1.1320     0.0110 c3         1 G07       0.088700
     14 C32          0.3320    -0.8410     1.5110 c3         1 G07      -0.068100
     15 C38          1.5950    -1.0710     2.2910 ca         1 G07      -0.075300
     16 C37          1.9290    -2.3460     2.7400 ca         1 G07      -0.116000
     17 C36          3.1320    -2.5780     3.3890 ca         1 G07      -0.129000
     18 C35          4.0260    -1.5350     3.5950 ca         1 G07      -0.133000
     19 C34          3.7010    -0.2580     3.1580 ca         1 G07      -0.129000
     20 C33          2.4910    -0.0300     2.5160 ca         1 G07      -0.116000
     21 C17         -0.7110    -0.8830    -0.8430 c3         1 G07       0.125100
     22 O18         -1.1740     0.4400    -0.7420 oh         1 G07      -0.585800
     23 C16         -1.7780    -1.9440    -0.5500 c3         1 G07       0.199800
     24 N11         -3.0510    -1.6810    -1.1950 n3         1 G07      -0.789500
     25 C12         -3.1490    -1.7030    -2.6510 c3         1 G07       0.245800
     26 C13         -3.7220    -2.9880    -3.2500 c3         1 G07      -0.090700
     27 C15         -3.6370    -2.9000    -4.7700 c3         1 G07      -0.084600
     28 C14         -3.0260    -4.2390    -2.7280 c3         1 G07      -0.084600
     29 S8          -4.3760    -1.4580    -0.2600 sy         1 G07       1.333200
     30 O9          -5.5000    -1.2370    -1.1570 o          1 G07      -0.634800
     31 O10         -4.4570    -2.5180     0.7350 o          1 G07      -0.634800
     32 C5          -4.0550     0.0480     0.6170 ca         1 G07      -0.316500
     33 C4          -4.2900     1.2620    -0.0200 ca         1 G07      -0.072500
     34 C3          -3.9680     2.4380     0.6340 ca         1 G07      -0.131500
     35 C6          -3.5180     0.0070     1.8980 ca         1 G07      -0.072500
     36 C7          -3.1890     1.1970     2.5310 ca         1 G07      -0.131500
     37 C2          -3.4050     2.4230     1.9100 ca         1 G07      -0.082600
     38 C1          -3.0340     3.7280     2.6150 c          1 G07       0.919200
     39 O1          -2.5240     3.6180     3.7430 o          1 G07      -0.810800
     40 O2          -3.2750     4.7770     1.9910 o          1 G07      -0.810800
     41 H3           5.3750    -0.9170    -0.0940 h1         1 G07       0.082700
     42 H4           6.8710     0.8580     0.0030 hc         1 G07       0.070700
     43 H5           4.4700     1.9990     0.8610 hc         1 G07       0.060700
     44 H6           5.9740     2.9010     0.7260 hc         1 G07       0.060700
     45 H7           3.7290     2.7500    -1.3320 h1         1 G07       0.061200
     46 H8           4.6180     4.1790    -0.7930 h1         1 G07       0.061200
     47 H9           7.3530     1.8310    -2.1210 h2         1 G07       0.072700
     48 H10          6.5270    -1.0110    -2.1870 h1         1 G07       0.059700
     49 H11          4.8590    -1.0520    -2.7730 h1         1 G07       0.059700
     50 H12          1.5150     0.6660    -0.4800 hn         1 G07       0.333500
     51 H14          0.8180    -2.1810    -0.1090 h1         1 G07       0.081700
     52 H15          0.0080     0.1950     1.6440 hc         1 G07       0.067200
     53 H16         -0.4670    -1.4740     1.9050 hc         1 G07       0.067200
     54 H17          1.2410    -3.1680     2.5740 ha         1 G07       0.132000
     55 H18          3.3750    -3.5760     3.7340 ha         1 G07       0.125000
     56 H19          4.9670    -1.7160     4.0980 ha         1 G07       0.122000
     57 H20          4.3870     0.5640     3.3210 ha         1 G07       0.125000
     58 H21          2.2390     0.9720     2.1880 ha         1 G07       0.132000
     59 H22         -0.3940    -0.9960    -1.8840 h1         1 G07       0.079700
     60 H23         -1.6200     0.5680     0.1010 ho         1 G07       0.425000
     61 H24         -1.3870    -2.9130    -0.8710 h1         1 G07       0.055200
     62 H25         -1.9380    -2.0490     0.5240 h1         1 G07       0.055200
     63 H26         -3.7210    -0.8420    -3.0020 h1         1 G07       0.055200
     64 H27         -2.1330    -1.5550    -3.0230 h1         1 G07       0.055200
     65 H28         -4.7790    -3.0490    -2.9730 hc         1 G07       0.068700
     66 H29         -2.5970    -2.8610    -5.1040 hc         1 G07       0.031867
     67 H30         -4.1000    -3.7700    -5.2370 hc         1 G07       0.031867
     68 H31         -4.1420    -2.0110    -5.1500 hc         1 G07       0.031867
     69 H32         -1.9560    -4.2240    -2.9480 hc         1 G07       0.031867
     70 H33         -3.1510    -4.3530    -1.6500 hc         1 G07       0.031867
     71 H34         -3.4450    -5.1300    -3.1980 hc         1 G07       0.031867
     72 H35         -4.7150     1.2950    -1.0140 ha         1 G07       0.131000
     73 H36         -4.1500     3.3850     0.1450 ha         1 G07       0.154500
     74 H37         -3.3500    -0.9360     2.4010 ha         1 G07       0.131000
     75 H38         -2.7610     1.1680     3.5240 ha         1 G07       0.154500
@<TRIPOS>BOND
     1     1     2 2   
     2     2     3 1   
     3     2    12 1   
     4     3     4 1   
     5     4     5 1   
     6     4    11 1   
     7     4    41 1   
     8     5     6 1   
     9     5     9 1   
    10     5    42 1   
    11     6     7 1   
    12     6    43 1   
    13     6    44 1   
    14     7     8 1   
    15     7    45 1   
    16     7    46 1   
    17     8     9 1   
    18     9    10 1   
    19     9    47 1   
    20    10    11 1   
    21    11    48 1   
    22    11    49 1   
    23    12    13 1   
    24    12    50 1   
    25    13    14 1   
    26    13    21 1   
    27    13    51 1   
    28    14    15 1   
    29    14    52 1   
    30    14    53 1   
    31    15    16 ar  
    32    15    20 ar  
    33    16    17 ar  
    34    16    54 1   
    35    17    18 ar  
    36    17    55 1   
    37    18    19 ar  
    38    18    56 1   
    39    19    20 ar  
    40    19    57 1   
    41    20    58 1   
    42    21    22 1   
    43    21    23 1   
    44    21    59 1   
    45    22    60 1   
    46    23    24 1   
    47    23    61 1   
    48    23    62 1   
    49    24    25 1   
    50    24    29 1   
    51    25    26 1   
    52    25    63 1   
    53    25    64 1   
    54    26    27 1   
    55    26    28 1   
    56    26    65 1   
    57    27    66 1   
    58    27    67 1   
    59    27    68 1   
    60    28    69 1   
    61    28    70 1   
    62    28    71 1   
    63    29    30 2   
    64    29    31 2   
    65    29    32 1   
    66    32    33 ar  
    67    32    35 ar  
    68    33    34 ar  
    69    33    72 1   
    70    34    37 ar  
    71    34    73 1   
    72    35    36 ar  
    73    35    74 1   
    74    36    37 ar  
    75    36    75 1   
    76    37    38 1   
    77    38    39 1   
    78    38    40 1   
@<TRIPOS>SUBSTRUCTURE
     1 G07         1 TEMP              0 ****  ****    0 ROOT
