@<TRIPOS>MOLECULE
G08
   77    80     1     0     0
SMALL
No Charge or Current Charge


@<TRIPOS>ATOM
      1 O22         -2.9440    -1.4620    -0.8380 o          1 G08      -0.531000
      2 C21         -2.8140    -0.5680    -0.0160 c          1 G08       0.642100
      3 O23         -3.8180     0.0820     0.6440 os         1 G08      -0.451100
      4 C24         -5.1600    -0.3700     0.3110 c5         1 G08       0.163300
      5 C31         -6.2060     0.5330     1.0510 c5         1 G08      -0.132700
      6 C30         -5.6880     0.9840     2.4670 c5         1 G08      -0.103400
      7 C29         -6.9780     0.8230     3.2900 c5         1 G08       0.154600
      8 O28         -7.4490    -0.4590     2.8450 os         1 G08      -0.462000
      9 C27         -7.3550    -0.4690     1.4070 c5         1 G08       0.375300
     10 O26         -6.9000    -1.7750     0.9990 os         1 G08      -0.444000
     11 C25         -5.4570    -1.7530     0.9580 c5         1 G08       0.128600
     12 N20         -1.6210    -0.0580     0.4080 ns         1 G08      -0.485900
     13 C19         -0.3020    -0.4400    -0.1100 c3         1 G08       0.090700
     14 C32          0.2080     0.6300    -1.1200 c3         1 G08      -0.059100
     15 C38         -0.7350     0.8420    -2.2980 ca         1 G08      -0.091300
     16 C37         -0.6970    -0.0350    -3.4000 ca         1 G08      -0.099500
     17 C36         -1.5690     0.1540    -4.4860 ca         1 G08      -0.106000
     18 C35         -2.4840     1.2200    -4.4770 ca         1 G08      -0.104000
     19 C34         -2.5260     2.0980    -3.3810 ca         1 G08      -0.106000
     20 C33         -1.6530     1.9110    -2.2950 ca         1 G08      -0.099500
     21 C17          0.6720    -0.7390     1.0730 c3         1 G08       0.142300
     22 O18          1.0090     0.4680     1.7760 oh         1 G08      -0.649000
     23 C16          1.9990    -1.4350     0.6510 c3         1 G08       0.193800
     24 N11          3.1480    -1.0950     1.5450 n3         1 G08      -0.790500
     25 C12          3.1510    -1.6640     2.9240 c3         1 G08       0.230800
     26 C13          2.8520    -3.1860     3.0850 c3         1 G08      -0.077700
     27 C15          3.8170    -4.1100     2.3070 c3         1 G08      -0.092100
     28 C14          2.8220    -3.5730     4.5830 c3         1 G08      -0.092100
     29 S8           4.6620    -0.8170     0.8020 sy         1 G08       1.196600
     30 O9           5.4460    -0.0550     1.7790 o          1 G08      -0.537500
     31 O10          5.1320    -2.0850     0.2360 o          1 G08      -0.537500
     32 C5           4.2140     0.3350    -0.5140 ca         1 G08      -0.273500
     33 C4           3.7950     1.6390    -0.1890 ca         1 G08      -0.026500
     34 C3           3.3870     2.5220    -1.2020 ca         1 G08      -0.098000
     35 C6           4.2300    -0.0730    -1.8620 ca         1 G08      -0.026500
     36 C7           3.8190     0.8120    -2.8740 ca         1 G08      -0.098000
     37 C2           3.3850     2.1230    -2.5580 ca         1 G08      -0.105600
     38 C1           2.9170     3.0950    -3.6230 c          1 G08       0.610700
     39 O1           2.5680     4.2370    -3.3680 o          1 G08      -0.591100
     40 N1           2.8900     2.6780    -4.9090 nt         1 G08      -0.600000
     41 H1          -5.3190    -0.3740    -0.7770 h1         1 G08       0.076700
     42 H2          -6.5620     1.3690     0.4390 hc         1 G08       0.077700
     43 H3          -4.9020     0.3430     2.8830 hc         1 G08       0.065200
     44 H4          -5.3110     2.0130     2.4710 hc         1 G08       0.065200
     45 H5          -6.8010     0.8100     4.3740 h1         1 G08       0.049200
     46 H6          -7.7260     1.5930     3.0520 h1         1 G08       0.049200
     47 H7          -8.3150    -0.2060     0.9400 h2         1 G08       0.086700
     48 H8          -5.0870    -2.5960     0.3600 h1         1 G08       0.069200
     49 H9          -5.0600    -1.8320     1.9790 h1         1 G08       0.069200
     50 H10         -1.6740     0.6750     1.1030 hn         1 G08       0.331500
     51 H11         -0.4190    -1.3810    -0.6660 h1         1 G08       0.092700
     52 H12          0.3650     1.5800    -0.5950 hc         1 G08       0.050700
     53 H13          1.1900     0.3400    -1.5070 hc         1 G08       0.050700
     54 H14          0.0060    -0.8640    -3.4140 ha         1 G08       0.110000
     55 H15         -1.5360    -0.5270    -5.3340 ha         1 G08       0.114000
     56 H16         -3.1600     1.3660    -5.3170 ha         1 G08       0.114000
     57 H17         -3.2340     2.9240    -3.3720 ha         1 G08       0.114000
     58 H18         -1.6940     2.5930    -1.4490 ha         1 G08       0.110000
     59 H19          0.1640    -1.4290     1.7610 h1         1 G08       0.094700
     60 H20          1.9720     0.3410     1.9580 ho         1 G08       0.443000
     61 H21          1.8390    -2.5200     0.6120 h1         1 G08       0.059700
     62 H22          2.2180    -1.1540    -0.3820 h1         1 G08       0.059700
     63 H23          4.1050    -1.4500     3.4230 h1         1 G08       0.065700
     64 H24          2.3920    -1.1340     3.5150 h1         1 G08       0.065700
     65 H25          1.8410    -3.3720     2.7030 hc         1 G08       0.046700
     66 H26          4.8610    -3.8900     2.5600 hc         1 G08       0.039033
     67 H27          3.6220    -5.1630     2.5450 hc         1 G08       0.039033
     68 H28          3.6830    -3.9940     1.2270 hc         1 G08       0.039033
     69 H29          3.8070    -3.4280     5.0440 hc         1 G08       0.039033
     70 H30          2.0940    -2.9600     5.1290 hc         1 G08       0.039033
     71 H31          2.5370    -4.6240     4.7080 hc         1 G08       0.039033
     72 H32          3.7700     1.9670     0.8500 ha         1 G08       0.140000
     73 H33          3.0580     3.5220    -0.9250 ha         1 G08       0.131500
     74 H34          4.5460    -1.0800    -2.1320 ha         1 G08       0.140000
     75 H35          3.8380     0.4590    -3.9020 ha         1 G08       0.131500
     76 H36          3.1690     1.7400    -5.1470 hn         1 G08       0.318500
     77 H37          2.5800     3.3170    -5.6250 hn         1 G08       0.318500
@<TRIPOS>BOND
     1     1     2 2   
     2     2     3 1   
     3     2    12 1   
     4     3     4 1   
     5     4     5 1   
     6     4    11 1   
     7     4    41 1   
     8     5     6 1   
     9     5     9 1   
    10     5    42 1   
    11     6     7 1   
    12     6    43 1   
    13     6    44 1   
    14     7     8 1   
    15     7    45 1   
    16     7    46 1   
    17     8     9 1   
    18     9    10 1   
    19     9    47 1   
    20    10    11 1   
    21    11    48 1   
    22    11    49 1   
    23    12    13 1   
    24    12    50 1   
    25    13    14 1   
    26    13    21 1   
    27    13    51 1   
    28    14    15 1   
    29    14    52 1   
    30    14    53 1   
    31    15    16 ar  
    32    15    20 ar  
    33    16    17 ar  
    34    16    54 1   
    35    17    18 ar  
    36    17    55 1   
    37    18    19 ar  
    38    18    56 1   
    39    19    20 ar  
    40    19    57 1   
    41    20    58 1   
    42    21    22 1   
    43    21    23 1   
    44    21    59 1   
    45    22    60 1   
    46    23    24 1   
    47    23    61 1   
    48    23    62 1   
    49    24    25 1   
    50    24    29 1   
    51    25    26 1   
    52    25    63 1   
    53    25    64 1   
    54    26    27 1   
    55    26    28 1   
    56    26    65 1   
    57    27    66 1   
    58    27    67 1   
    59    27    68 1   
    60    28    69 1   
    61    28    70 1   
    62    28    71 1   
    63    29    30 2   
    64    29    31 2   
    65    29    32 1   
    66    32    33 ar  
    67    32    35 ar  
    68    33    34 ar  
    69    33    72 1   
    70    34    37 ar  
    71    34    73 1   
    72    35    36 ar  
    73    35    74 1   
    74    36    37 ar  
    75    36    75 1   
    76    37    38 1   
    77    38    39 2   
    78    38    40 1   
    79    40    76 1   
    80    40    77 1   
@<TRIPOS>SUBSTRUCTURE
     1 G08         1 TEMP              0 ****  ****    0 ROOT
