@<TRIPOS>MOLECULE
G08
   77    80     1     0     0
SMALL
bcc


@<TRIPOS>ATOM
      1 O22         -3.0080    -1.9860    -0.0980 o          1 G08      -0.580000
      2 C21         -2.6980    -0.8560     0.2100 c          1 G08       0.758100
      3 O23         -3.5780     0.0820     0.5910 os         1 G08      -0.427900
      4 C24         -4.9540    -0.2330     0.4820 c5         1 G08       0.140100
      5 C31         -5.7910     1.0170     0.7200 c5         1 G08      -0.132700
      6 C30         -5.3210     1.9160     1.8660 c5         1 G08      -0.103400
      7 C29         -6.6370     2.3060     2.5160 c5         1 G08       0.131400
      8 O28         -7.4650     1.1590     2.3930 os         1 G08      -0.415600
      9 C27         -7.1140     0.4350     1.2470 c5         1 G08       0.328900
     10 O26         -6.8820    -0.9140     1.5580 os         1 G08      -0.397600
     11 C25         -5.4900    -1.1760     1.5580 c5         1 G08       0.105400
     12 N20         -1.4430    -0.3670     0.2570 ns         1 G08      -0.552900
     13 C19         -0.3220    -1.0500    -0.3470 c3         1 G08       0.090700
     14 C32         -0.0710    -0.5190    -1.7730 c3         1 G08      -0.059100
     15 C38         -1.3080    -0.6140    -2.6190 ca         1 G08      -0.091300
     16 C37         -1.6300    -1.8040    -3.2660 ca         1 G08      -0.117500
     17 C36         -2.8060    -1.9220    -3.9930 ca         1 G08      -0.124000
     18 C35         -3.6840    -0.8480    -4.0770 ca         1 G08      -0.122000
     19 C34         -3.3710     0.3450    -3.4390 ca         1 G08      -0.124000
     20 C33         -2.1880     0.4600    -2.7200 ca         1 G08      -0.117500
     21 C17          0.8950    -0.9180     0.5810 c3         1 G08       0.119100
     22 O18          1.2620     0.4230     0.7930 oh         1 G08      -0.586800
     23 C16          2.0550    -1.7850     0.0850 c3         1 G08       0.193800
     24 N11          3.2630    -1.6100     0.8720 n3         1 G08      -0.790500
     25 C12          3.2180    -1.8520     2.3070 c3         1 G08       0.230800
     26 C13          2.9220    -3.3100     2.6580 c3         1 G08      -0.077700
     27 C15          3.9440    -4.2530     2.0370 c3         1 G08      -0.092100
     28 C14          2.8810    -3.4500     4.1760 c3         1 G08      -0.092100
     29 S8           4.6340    -1.1770     0.0950 sy         1 G08       1.338200
     30 O9           5.7140    -1.1610     1.0680 o          1 G08      -0.608300
     31 O10          4.7800    -1.9700    -1.1160 o          1 G08      -0.608300
     32 C5           4.3180     0.4950    -0.4170 ca         1 G08      -0.273500
     33 C4           4.4310     1.5140     0.5210 ca         1 G08      -0.044500
     34 C3           4.1070     2.8070     0.1550 ca         1 G08      -0.116000
     35 C6           3.8930     0.7570    -1.7110 ca         1 G08      -0.044500
     36 C7           3.5720     2.0590    -2.0670 ca         1 G08      -0.116000
     37 C2           3.6820     3.0920    -1.1420 ca         1 G08      -0.105600
     38 C1           3.3250     4.5120    -1.4710 c          1 G08       0.677700
     39 O1           2.9700     5.2820    -0.5920 o          1 G08      -0.591100
     40 N1           3.4210     4.8590    -2.7610 nt         1 G08      -0.667000
     41 H1          -5.1670    -0.6420    -0.5100 h1         1 G08       0.076700
     42 H2          -5.9390     1.5940    -0.1930 hc         1 G08       0.077700
     43 H3          -4.6960     1.3740     2.5790 hc         1 G08       0.065200
     44 H4          -4.7550     2.7800     1.5200 hc         1 G08       0.065200
     45 H5          -6.5410     2.5570     3.5730 h1         1 G08       0.049200
     46 H6          -7.0880     3.1630     2.0030 h1         1 G08       0.049200
     47 H7          -7.9380     0.4660     0.5270 h2         1 G08       0.086700
     48 H8          -5.3360    -2.2300     1.3320 h1         1 G08       0.069200
     49 H9          -5.0280    -0.9580     2.5300 h1         1 G08       0.069200
     50 H10         -1.3280     0.6170     0.4500 hn         1 G08       0.331500
     51 H11         -0.5770    -2.1090    -0.4090 h1         1 G08       0.092700
     52 H12          0.2590     0.5230    -1.7270 hc         1 G08       0.050700
     53 H13          0.7350    -1.0880    -2.2420 hc         1 G08       0.050700
     54 H14         -0.9550    -2.6490    -3.1990 ha         1 G08       0.128000
     55 H15         -3.0390    -2.8530    -4.4940 ha         1 G08       0.132000
     56 H16         -4.6030    -0.9390    -4.6420 ha         1 G08       0.132000
     57 H17         -4.0450     1.1890    -3.5030 ha         1 G08       0.132000
     58 H18         -1.9470     1.3980    -2.2330 ha         1 G08       0.128000
     59 H19          0.5750    -1.2880     1.5590 h1         1 G08       0.094700
     60 H20          1.6530     0.7900    -0.0070 ho         1 G08       0.404000
     61 H21          1.7440    -2.8330     0.0950 h1         1 G08       0.059700
     62 H22          2.2750    -1.5580    -0.9590 h1         1 G08       0.059700
     63 H23          4.1730    -1.5660     2.7450 h1         1 G08       0.065700
     64 H24          2.4670    -1.1960     2.7550 h1         1 G08       0.065700
     65 H25          1.9290    -3.5700     2.2730 hc         1 G08       0.046700
     66 H26          4.9540    -4.0150     2.3780 hc         1 G08       0.039033
     67 H27          3.7350    -5.2870     2.3130 hc         1 G08       0.039033
     68 H28          3.9400    -4.1990     0.9480 hc         1 G08       0.039033
     69 H29          3.8490    -3.2090     4.6200 hc         1 G08       0.039033
     70 H30          2.1360    -2.7850     4.6190 hc         1 G08       0.039033
     71 H31          2.6270    -4.4700     4.4670 hc         1 G08       0.039033
     72 H32          4.7580     1.3090     1.5320 ha         1 G08       0.158000
     73 H33          4.1880     3.6010     0.8840 ha         1 G08       0.149500
     74 H34          3.8120    -0.0320    -2.4460 ha         1 G08       0.158000
     75 H35          3.2180     2.2420    -3.0730 ha         1 G08       0.149500
     76 H36          3.8380     4.2630    -3.4550 hn         1 G08       0.318500
     77 H37          3.2140     5.8050    -3.0380 hn         1 G08       0.318500
@<TRIPOS>BOND
     1     1     2 2   
     2     2     3 1   
     3     2    12 1   
     4     3     4 1   
     5     4     5 1   
     6     4    11 1   
     7     4    41 1   
     8     5     6 1   
     9     5     9 1   
    10     5    42 1   
    11     6     7 1   
    12     6    43 1   
    13     6    44 1   
    14     7     8 1   
    15     7    45 1   
    16     7    46 1   
    17     8     9 1   
    18     9    10 1   
    19     9    47 1   
    20    10    11 1   
    21    11    48 1   
    22    11    49 1   
    23    12    13 1   
    24    12    50 1   
    25    13    14 1   
    26    13    21 1   
    27    13    51 1   
    28    14    15 1   
    29    14    52 1   
    30    14    53 1   
    31    15    16 ar  
    32    15    20 ar  
    33    16    17 ar  
    34    16    54 1   
    35    17    18 ar  
    36    17    55 1   
    37    18    19 ar  
    38    18    56 1   
    39    19    20 ar  
    40    19    57 1   
    41    20    58 1   
    42    21    22 1   
    43    21    23 1   
    44    21    59 1   
    45    22    60 1   
    46    23    24 1   
    47    23    61 1   
    48    23    62 1   
    49    24    25 1   
    50    24    29 1   
    51    25    26 1   
    52    25    63 1   
    53    25    64 1   
    54    26    27 1   
    55    26    28 1   
    56    26    65 1   
    57    27    66 1   
    58    27    67 1   
    59    27    68 1   
    60    28    69 1   
    61    28    70 1   
    62    28    71 1   
    63    29    30 2   
    64    29    31 2   
    65    29    32 1   
    66    32    33 ar  
    67    32    35 ar  
    68    33    34 ar  
    69    33    72 1   
    70    34    37 ar  
    71    34    73 1   
    72    35    36 ar  
    73    35    74 1   
    74    36    37 ar  
    75    36    75 1   
    76    37    38 1   
    77    38    39 2   
    78    38    40 1   
    79    40    76 1   
    80    40    77 1   
@<TRIPOS>SUBSTRUCTURE
     1 G08         1 TEMP              0 ****  ****    0 ROOT
