@<TRIPOS>MOLECULE
G09
   66    70     1     0     0
SMALL
No Charge or Current Charge


@<TRIPOS>ATOM
      1 C13        -42.5090    10.2490   -39.7880 c6         1 G09      -0.004400
      2 C17        -41.9380    13.0200   -40.6100 c6         1 G09       0.154800
      3 C20        -43.2540     6.8020   -38.2420 ca         1 G09      -0.173000
      4 C21        -43.3470     7.1130   -36.8680 ca         1 G09       0.144100
      5 C22        -43.1690     8.4400   -36.4490 ca         1 G09      -0.173000
      6 C26        -44.0750     4.0090   -34.9420 ca         1 G09      -0.097300
      7 C28        -45.6390     3.1430   -33.2790 ca         1 G09      -0.115000
      8 C02        -46.5340    15.6090   -42.7880 c          1 G09       0.613600
      9 C03        -45.7220    15.5350   -43.9900 cc         1 G09      -0.331600
     10 C05        -44.8280    15.7670   -46.0970 cc         1 G09      -0.142000
     11 C06        -44.0140    14.9550   -45.3490 cd         1 G09      -0.192000
     12 C07        -44.5730    14.8250   -44.0700 cd         1 G09       0.187400
     13 C09        -44.8380    14.1520   -41.9100 cc         1 G09       0.710800
     14 C11        -43.3380    12.3890   -40.8990 c6         1 G09       0.242500
     15 C12        -43.6540    11.2940   -39.8520 c6         1 G09      -0.091400
     16 C14        -41.1490    10.9550   -39.5170 c6         1 G09       0.167800
     17 C18        -42.8030     9.1490   -38.7560 ca         1 G09      -0.119300
     18 C19        -42.9830     7.8160   -39.1770 ca         1 G09      -0.068500
     19 C23        -42.8990     9.4540   -37.3830 ca         1 G09      -0.068500
     20 C25        -43.8090     4.7760   -36.2310 c3         1 G09       0.210900
     21 C27        -45.3930     3.8520   -34.4680 ca         1 G09      -0.084000
     22 C29        -44.5690     2.5880   -32.5560 ca         1 G09      -0.098000
     23 C30        -43.2530     2.7430   -33.0240 ca         1 G09      -0.115000
     24 C31        -43.0060     3.4520   -34.2130 ca         1 G09      -0.084000
     25 C34        -47.2740    13.5900   -39.9920 c2         1 G09      -0.240200
     26 C35        -46.9400    12.9200   -38.8760 c2         1 G09      -0.316000
     27 N04        -45.8870    16.1260   -45.2520 na         1 G09      -0.079000
     28 N08        -44.0900    14.0970   -43.0040 nd         1 G09      -0.670100
     29 N10        -44.4090    13.4080   -40.8480 nu         1 G09      -0.909400
     30 N15        -40.8490    11.9960   -40.5400 n3         1 G09      -0.714600
     31 N32        -46.0130    14.8740   -41.7270 n          1 G09      -0.352300
     32 O01        -47.5680    16.2630   -42.7330 o          1 G09      -0.566000
     33 O24        -43.6100     6.1620   -35.9050 os         1 G09      -0.342100
     34 H131       -42.4330     9.7810   -40.7800 hc         1 G09       0.067700
     35 H171       -41.7150    13.7530   -41.3990 h1         1 G09       0.044200
     36 H172       -41.9900    13.5770   -39.6620 h1         1 G09       0.044200
     37 H201       -43.3870     5.7860   -38.6020 ha         1 G09       0.122500
     38 H221       -43.2410     8.6840   -35.3920 ha         1 G09       0.122500
     39 H281       -46.6580     3.0260   -32.9170 ha         1 G09       0.114500
     40 H051       -44.7480    16.1100   -47.1230 h4         1 G09       0.146000
     41 H061       -43.0940    14.4900   -45.6870 ha         1 G09       0.147000
     42 H111       -43.2970    11.9070   -41.8890 h1         1 G09       0.088700
     43 H121       -43.7940    11.7550   -38.8640 hc         1 G09       0.045700
     44 H122       -44.5990    10.7950   -40.1060 hc         1 G09       0.045700
     45 H142       -40.3550    10.1930   -39.5120 h1         1 G09       0.035200
     46 H141       -41.1660    11.4070   -38.5150 h1         1 G09       0.035200
     47 H162       -38.7320    11.8350   -40.3660 h1         1 G09       0.031700
     48 H161       -39.3000    13.3220   -41.1540 h1         1 G09       0.031700
     49 H163       -39.4590    13.1350   -39.3910 h1         1 G09       0.031700
     50 H191       -42.9150     7.5610   -40.2330 ha         1 G09       0.112000
     51 H231       -42.7660    10.4760   -37.0350 ha         1 G09       0.112000
     52 H251       -44.6630     4.6570   -36.9100 h1         1 G09       0.041200
     53 H252       -42.9190     4.3640   -36.7240 h1         1 G09       0.041200
     54 H271       -46.2270     4.2810   -35.0200 ha         1 G09       0.114500
     55 H291       -44.7600     2.0400   -31.6360 ha         1 G09       0.113000
     56 H301       -42.4240     2.3150   -32.4650 ha         1 G09       0.114500
     57 H311       -41.9840     3.5690   -34.5670 ha         1 G09       0.114500
     58 H332       -45.9960    15.2930   -39.6560 h1         1 G09       0.076700
     59 H331       -47.5250    15.6690   -40.4280 h1         1 G09       0.076700
     60 H1         -48.0080    13.1770   -40.6900 ha         1 G09       0.189000
     61 H2         -47.3900    11.9540   -38.6370 ha         1 G09       0.166500
     62 H351       -46.2240    13.3130   -38.1510 ha         1 G09       0.166500
     63 H041       -46.6630    16.7290   -45.5160 hn         1 G09       0.362000
     64 H101       -45.1600    13.2690   -40.1780 hn         1 G09       0.496000
     65 C16        -39.5150    12.6050   -40.3510 c3         1 G09       0.157100
     66 C33        -46.7090    14.9340   -40.4110 c3         1 G09       0.106200
@<TRIPOS>BOND
     1     1    15 1   
     2     1    16 1   
     3     1    17 1   
     4     1    34 1   
     5     2    14 1   
     6     2    30 1   
     7     2    35 1   
     8     2    36 1   
     9     3     4 ar  
    10     3    18 ar  
    11     3    37 1   
    12     4     5 ar  
    13     4    33 1   
    14     5    19 ar  
    15     5    38 1   
    16     6    20 1   
    17     6    21 ar  
    18     6    24 ar  
    19     7    21 ar  
    20     7    22 ar  
    21     7    39 1   
    22     8     9 1   
    23     8    31 1   
    24     8    32 2   
    25     9    12 2   
    26     9    27 1   
    27    10    11 2   
    28    10    27 1   
    29    10    40 1   
    30    11    12 1   
    31    11    41 1   
    32    12    28 1   
    33    13    28 2   
    34    13    29 1   
    35    13    31 1   
    36    14    15 1   
    37    14    29 1   
    38    14    42 1   
    39    15    43 1   
    40    15    44 1   
    41    16    30 1   
    42    16    45 1   
    43    16    46 1   
    44    17    18 ar  
    45    17    19 ar  
    46    18    50 1   
    47    19    51 1   
    48    20    33 1   
    49    20    52 1   
    50    20    53 1   
    51    21    54 1   
    52    22    23 ar  
    53    22    55 1   
    54    23    24 ar  
    55    23    56 1   
    56    24    57 1   
    57    25    26 2   
    58    25    60 1   
    59    25    66 1   
    60    26    61 1   
    61    26    62 1   
    62    27    63 1   
    63    29    64 1   
    64    30    65 1   
    65    31    66 1   
    66    47    65 1   
    67    48    65 1   
    68    49    65 1   
    69    58    66 1   
    70    59    66 1   
@<TRIPOS>SUBSTRUCTURE
     1 G09         1 TEMP              0 ****  ****    0 ROOT
