@<TRIPOS>MOLECULE
G09
   66    70     1     0     0
SMALL
bcc


@<TRIPOS>ATOM
      1 C13        -42.4710    10.1520   -39.8370 c6         1 G09      -0.004400
      2 C17        -42.0160    12.9090   -40.5770 c6         1 G09       0.154800
      3 C20        -43.1020     6.7500   -38.2310 ca         1 G09      -0.191000
      4 C21        -43.2420     7.0830   -36.8880 ca         1 G09       0.144100
      5 C22        -43.1030     8.4180   -36.5030 ca         1 G09      -0.191000
      6 C26        -44.0270     4.1050   -34.9730 ca         1 G09      -0.097300
      7 C28        -45.6410     3.1690   -33.4410 ca         1 G09      -0.133000
      8 C02        -46.4300    15.6230   -42.6880 c          1 G09       0.756100
      9 C03        -45.6480    15.5580   -43.8670 cc         1 G09      -0.280900
     10 C05        -44.8130    15.8550   -45.8880 cc         1 G09      -0.109300
     11 C06        -43.9820    14.9530   -45.2570 cd         1 G09      -0.210000
     12 C07        -44.5180    14.7610   -43.9600 cd         1 G09       0.187400
     13 C09        -44.7960    13.9990   -41.8550 cc         1 G09       0.710800
     14 C11        -43.3600    12.2570   -40.8830 c6         1 G09       0.242500
     15 C12        -43.6370    11.1380   -39.8890 c6         1 G09      -0.091400
     16 C14        -41.1600    10.9000   -39.5990 c6         1 G09       0.167800
     17 C18        -42.7100     9.0820   -38.8020 ca         1 G09      -0.119300
     18 C19        -42.8380     7.7480   -39.1640 ca         1 G09      -0.086500
     19 C23        -42.8440     9.3930   -37.4470 ca         1 G09      -0.086500
     20 C25        -43.7080     4.8390   -36.2400 c3         1 G09       0.187700
     21 C27        -45.3450     3.8220   -34.6310 ca         1 G09      -0.102000
     22 C29        -44.6180     2.7970   -32.5800 ca         1 G09      -0.116000
     23 C30        -43.2980     3.0780   -32.9130 ca         1 G09      -0.133000
     24 C31        -43.0060     3.7280   -34.1040 ca         1 G09      -0.102000
     25 C34        -47.4510    13.7180   -40.0870 c2         1 G09      -0.190200
     26 C35        -47.4320    13.0190   -38.9580 c2         1 G09      -0.216000
     27 N04        -45.8120    16.2160   -45.0540 na         1 G09      -0.130100
     28 N08        -44.0950    13.9580   -42.9490 nd         1 G09      -0.670100
     29 N10        -44.4390    13.2230   -40.8060 nu         1 G09      -0.854200
     30 N15        -40.9560    11.9240   -40.6060 n3         1 G09      -0.714600
     31 N32        -45.9010    14.8160   -41.6660 n          1 G09      -0.419300
     32 O01        -47.4400    16.2910   -42.5190 o          1 G09      -0.641500
     33 O24        -43.5140     6.2050   -35.9000 os         1 G09      -0.318900
     34 H131       -42.3950     9.6660   -40.8150 hc         1 G09       0.067700
     35 H171       -41.8070    13.6770   -41.3250 h1         1 G09       0.044200
     36 H172       -42.0820    13.4180   -39.5970 h1         1 G09       0.044200
     37 H201       -43.1990     5.7290   -38.5760 ha         1 G09       0.140500
     38 H221       -43.2080     8.6850   -35.4590 ha         1 G09       0.140500
     39 H281       -46.6710     2.9510   -33.1880 ha         1 G09       0.132500
     40 H051       -44.7520    16.2640   -46.8830 h4         1 G09       0.164000
     41 H061       -43.1050    14.4900   -45.6800 ha         1 G09       0.165000
     42 H111       -43.3170    11.8390   -41.8930 h1         1 G09       0.088700
     43 H121       -43.7940    11.5730   -38.8950 hc         1 G09       0.045700
     44 H122       -44.5590    10.6160   -40.1600 hc         1 G09       0.045700
     45 H142       -40.3270    10.1930   -39.6440 h1         1 G09       0.035200
     46 H141       -41.1570    11.3320   -38.5820 h1         1 G09       0.035200
     47 H162       -38.8720    11.7890   -40.5410 h1         1 G09       0.031700
     48 H161       -39.5010    13.2600   -41.2830 h1         1 G09       0.031700
     49 H163       -39.5250    13.0810   -39.5220 h1         1 G09       0.031700
     50 H191       -42.7390     7.4660   -40.2060 ha         1 G09       0.130000
     51 H231       -42.7550    10.4210   -37.1120 ha         1 G09       0.130000
     52 H251       -44.5290     4.7350   -36.9590 h1         1 G09       0.041200
     53 H252       -42.8030     4.4310   -36.7050 h1         1 G09       0.041200
     54 H271       -46.1460     4.1100   -35.3010 ha         1 G09       0.132500
     55 H291       -44.8470     2.2870   -31.6540 ha         1 G09       0.131000
     56 H301       -42.4970     2.7870   -32.2470 ha         1 G09       0.132500
     57 H311       -41.9750     3.9380   -34.3630 ha         1 G09       0.132500
     58 H332       -45.7940    14.9980   -39.5820 h1         1 G09       0.076700
     59 H331       -47.1410    15.8050   -40.3520 h1         1 G09       0.076700
     60 H1         -48.1620    13.4730   -40.8690 ha         1 G09       0.139000
     61 H2         -48.1190    12.2010   -38.7890 ha         1 G09       0.116500
     62 H351       -46.7330    13.2440   -38.1600 ha         1 G09       0.116500
     63 H041       -46.5490    16.8680   -45.2700 hn         1 G09       0.311700
     64 H101       -45.1280    13.0400   -40.0950 hn         1 G09       0.440800
     65 C16        -39.6570    12.5440   -40.4750 c3         1 G09       0.157100
     66 C33        -46.5540    14.8890   -40.3590 c3         1 G09       0.106200
@<TRIPOS>BOND
     1     1    15 1   
     2     1    16 1   
     3     1    17 1   
     4     1    34 1   
     5     2    14 1   
     6     2    30 1   
     7     2    35 1   
     8     2    36 1   
     9     3     4 ar  
    10     3    18 ar  
    11     3    37 1   
    12     4     5 ar  
    13     4    33 1   
    14     5    19 ar  
    15     5    38 1   
    16     6    20 1   
    17     6    21 ar  
    18     6    24 ar  
    19     7    21 ar  
    20     7    22 ar  
    21     7    39 1   
    22     8     9 1   
    23     8    31 1   
    24     8    32 2   
    25     9    12 2   
    26     9    27 1   
    27    10    11 2   
    28    10    27 1   
    29    10    40 1   
    30    11    12 1   
    31    11    41 1   
    32    12    28 1   
    33    13    28 2   
    34    13    29 1   
    35    13    31 1   
    36    14    15 1   
    37    14    29 1   
    38    14    42 1   
    39    15    43 1   
    40    15    44 1   
    41    16    30 1   
    42    16    45 1   
    43    16    46 1   
    44    17    18 ar  
    45    17    19 ar  
    46    18    50 1   
    47    19    51 1   
    48    20    33 1   
    49    20    52 1   
    50    20    53 1   
    51    21    54 1   
    52    22    23 ar  
    53    22    55 1   
    54    23    24 ar  
    55    23    56 1   
    56    24    57 1   
    57    25    26 2   
    58    25    60 1   
    59    25    66 1   
    60    26    61 1   
    61    26    62 1   
    62    27    63 1   
    63    29    64 1   
    64    30    65 1   
    65    31    66 1   
    66    47    65 1   
    67    48    65 1   
    68    49    65 1   
    69    58    66 1   
    70    59    66 1   
@<TRIPOS>SUBSTRUCTURE
     1 G09         1 TEMP              0 ****  ****    0 ROOT
