@<TRIPOS>MOLECULE
G0B
  124   127     1     0     0
SMALL
abcg2


@<TRIPOS>ATOM
      1 C1          -2.9590    -2.0930     0.2500 c6         1 G0B       0.159000
      2 O18         -3.3120    -0.7540     0.2540 os         1 G0B      -0.291000
      3 C2          -3.4090    -2.7080     1.5750 c6         1 G0B      -0.004000
      4 N8          -4.8520    -2.6600     1.7110 n7         1 G0B      -0.338000
      5 C3          -2.9250    -4.1560     1.6580 c6         1 G0B       0.032000
      6 O16         -3.2390    -4.6310     2.9350 oh         1 G0B      -0.306000
      7 C4          -1.4260    -4.2450     1.3550 c6         1 G0B      -0.020000
      8 O17         -1.0770    -5.6060     1.2730 oh         1 G0B      -0.301000
      9 C5          -1.1450    -3.5370     0.0330 c6         1 G0B      -0.019000
     10 O7          -1.5790    -2.2000     0.1300 os         1 G0B      -0.283000
     11 C6           0.3260    -3.4870    -0.3480 c3         1 G0B      -0.023000
     12 C19         -4.0100     2.7000    -0.3070 c6         1 G0B       0.025000
     13 N25         -4.5430     3.7060     0.5910 n7         1 G0B      -0.359000
     14 C24         -2.6700     2.1480     0.1870 c6         1 G0B       0.002000
     15 C23         -2.1550     1.0920    -0.7900 c6         1 G0B       0.037000
     16 O34         -0.9500     0.5470    -0.3110 os         1 G0B      -0.255000
     17 C22         -3.1500    -0.0540    -0.9720 c6         1 G0B       0.033000
     18 C21         -4.5070     0.5000    -1.4110 c6         1 G0B       0.025000
     19 N29         -5.4500    -0.5920    -1.5360 n7         1 G0B      -0.356000
     20 C20         -5.0300     1.5790    -0.4640 c6         1 G0B      -0.202000
     21 C35          0.2410     1.0340    -0.7730 c5         1 G0B       0.117000
     22 C36          1.3390     0.8530     0.2840 c5         1 G0B      -0.011000
     23 C37          2.5910     0.6490    -0.5800 c5         1 G0B      -0.004000
     24 C38          2.0570     0.6370    -2.0200 c5         1 G0B       0.024000
     25 O40          0.6970     0.2700    -1.8850 os         1 G0B      -0.300000
     26 C39          2.8010    -0.3260    -2.9090 c3         1 G0B      -0.006000
     27 C47          6.9930     1.3320     1.7840 c6         1 G0B      -0.016000
     28 C46          6.2550     2.6700     1.8670 c6         1 G0B       0.039000
     29 C45          5.2650     2.8070     0.7100 c6         1 G0B       0.003000
     30 C44          4.3710     1.5680     0.6580 c6         1 G0B       0.152000
     31 O43          3.5780     1.6500    -0.4690 os         1 G0B      -0.269000
     32 C48          5.9710     0.1990     1.6880 c6         1 G0B      -0.018000
     33 O50          5.1630     0.4210     0.5520 os         1 G0B      -0.329000
     34 C49          6.6040    -1.1710     1.5250 c3         1 G0B      -0.023000
     35 N12          0.5280    -2.8490    -1.6330 n7         1 G0B      -0.345000
     36 O41          1.1410    -0.3060     1.0490 oh         1 G0B      -0.323000
     37 O59          7.1290     3.7600     1.8070 oh         1 G0B      -0.303000
     38 O60          7.7840     1.2150     2.9410 oh         1 G0B      -0.294000
     39 O42          2.1500    -0.3990    -4.1590 oh         1 G0B      -0.334000
     40 O33         -1.7220     3.1860     0.2710 oh         1 G0B      -0.344000
     41 N55          5.6130    -2.2260     1.4790 n7         1 G0B      -0.303000
     42 N51          4.4850     4.0140     0.8730 n7         1 G0B      -0.321000
     43 C9          -5.5260    -1.7860     2.4650 cz         1 G0B       0.403000
     44 N10         -4.9610    -0.6570     2.8640 n8         1 G0B      -0.358500
     45 N11         -6.7760    -2.0550     2.7990 n8         1 G0B      -0.358500
     46 C13          0.3390    -3.4540    -2.8080 cz         1 G0B       0.378000
     47 N14          0.0380    -4.7430    -2.8670 n8         1 G0B      -0.365500
     48 N15          0.4570    -2.7590    -3.9310 n8         1 G0B      -0.365500
     49 C26         -4.3770     5.0220     0.4660 cz         1 G0B       0.397000
     50 N27         -5.1790     5.8390     1.1300 n8         1 G0B      -0.341000
     51 N28         -3.4390     5.5110    -0.3350 n8         1 G0B      -0.341000
     52 C30         -6.4340    -0.6720    -2.4360 cz         1 G0B       0.402000
     53 N31         -7.2270    -1.7320    -2.4190 n8         1 G0B      -0.345000
     54 N32         -6.6230     0.2760    -3.3370 n8         1 G0B      -0.345000
     55 C52          4.1160     4.8390    -0.1040 cz         1 G0B       0.404000
     56 N53          4.2470     4.4910    -1.3780 n8         1 G0B      -0.356500
     57 N54          3.6390     6.0330     0.2080 n8         1 G0B      -0.356500
     58 C56          5.0720    -2.7540     0.3880 cz         1 G0B       0.404000
     59 N57          4.2380    -3.7820     0.5170 n8         1 G0B      -0.377500
     60 N58          5.3290    -2.2770    -0.8220 n8         1 G0B      -0.377500
     61 HN58         5.8320    -1.4170    -0.9610 hn         1 G0B       0.277500
     62 HN5A         5.0960    -2.8080    -1.6450 hn         1 G0B       0.277500
     63 HN55         5.2970    -2.5880     2.3650 hn         1 G0B       0.282000
     64 H49          7.2330    -1.2100     0.6330 h1         1 G0B       0.153500
     65 H49A         7.2550    -1.3730     2.3730 h1         1 G0B       0.153500
     66 H48          5.3540     0.1940     2.6000 h1         1 G0B       0.116000
     67 H44          3.7590     1.5150     1.5760 h2         1 G0B       0.091000
     68 H37          3.0100    -0.3330    -0.3340 h1         1 G0B       0.119000
     69 H36          1.4130     1.7510     0.9110 h1         1 G0B       0.113000
     70 HO41         0.2110    -0.3550     1.3040 ho         1 G0B       0.237000
     71 H35          0.1760     2.0870    -1.0780 h2         1 G0B       0.111000
     72 H38          2.1260     1.6520    -2.4390 h1         1 G0B       0.127000
     73 H39          3.8290     0.0370    -3.0110 h1         1 G0B       0.078000
     74 H39A         2.8580    -1.3130    -2.4290 h1         1 G0B       0.078000
     75 HO42         2.7710    -0.7420    -4.8100 ho         1 G0B       0.252000
     76 H23         -2.0100     1.5570    -1.7750 h1         1 G0B       0.126000
     77 H24         -2.8180     1.6860     1.1710 h1         1 G0B       0.105000
     78 HO33        -1.4970     3.3490     1.1910 ho         1 G0B       0.244000
     79 HN25        -5.1810     3.3950     1.3090 hn         1 G0B       0.268000
     80 HN28        -3.3520     6.5070    -0.4460 hn         1 G0B       0.293000
     81 HN2A        -2.6120     4.9580    -0.5130 hn         1 G0B       0.293000
     82 H20         -5.2620     1.1370     0.5110 hc         1 G0B       0.116500
     83 H20A        -5.9660     1.9890    -0.8500 hc         1 G0B       0.116500
     84 H21         -4.3450     0.9290    -2.4020 h1         1 G0B       0.135000
     85 HN29        -5.5170    -1.2160    -0.7460 hn         1 G0B       0.257000
     86 HN32        -7.3000     0.1580    -4.0720 hn         1 G0B       0.295500
     87 HN3A        -6.1390     1.1570    -3.3130 hn         1 G0B       0.295500
     88 H1          -3.4450    -2.6240    -0.5890 h2         1 G0B       0.076000
     89 H5          -1.7080    -4.0570    -0.7600 h1         1 G0B       0.098000
     90 H6           0.8840    -2.9090     0.3890 h1         1 G0B       0.135000
     91 H6A          0.7580    -4.4880    -0.3510 h1         1 G0B       0.135000
     92 HN12         0.5360    -1.8350    -1.6340 hn         1 G0B       0.290000
     93 HN15         0.3510    -3.2300    -4.8140 hn         1 G0B       0.292750
     94 HN1A         0.9100    -1.8480    -3.9650 hn         1 G0B       0.292750
     95 H4          -0.8740    -3.7360     2.1570 h1         1 G0B       0.118000
     96 HO17        -0.2810    -5.7590     1.7890 ho         1 G0B       0.246000
     97 H3          -3.4500    -4.7360     0.8800 h1         1 G0B       0.097000
     98 HO16        -3.0640    -5.5770     2.9590 ho         1 G0B       0.273000
     99 H2          -2.9450    -2.1470     2.3950 h1         1 G0B       0.151000
    100 HN8         -5.3630    -3.4790     1.4140 hn         1 G0B       0.275000
    101 HN11        -7.3580    -1.3650     3.2430 hn         1 G0B       0.290750
    102 HN1B        -7.1740    -2.9670     2.6510 hn         1 G0B       0.290750
    103 H45          5.8360     2.8650    -0.2230 h1         1 G0B       0.159000
    104 HN51         4.2680     4.3010     1.8160 hn         1 G0B       0.275000
    105 HN54         3.6900     6.3900     1.1470 hn         1 G0B       0.283750
    106 HN5B         3.2390     6.6330    -0.4940 hn         1 G0B       0.283750
    107 H46          5.6840     2.6720     2.8110 h1         1 G0B       0.095000
    108 HO59         7.6970     3.7330     2.5840 ho         1 G0B       0.272000
    109 H47          7.6080     1.3310     0.8730 h1         1 G0B       0.120000
    110 HO60         8.6120     0.7820     2.7150 ho         1 G0B       0.251000
    111 H22         -2.7750    -0.7240    -1.7520 h1         1 G0B       0.134000
    112 H19         -3.8590     3.1660    -1.2870 h1         1 G0B       0.137000
    113 HN10        -4.0970    -0.3300     2.4690 hn         1 G0B       0.290750
    114 HN14        -0.0470    -5.2110    -3.7540 hn         1 G0B       0.292750
    115 HN27        -6.0160     5.5050     1.5780 hn         1 G0B       0.293000
    116 HN31        -7.0080    -2.5440    -1.8680 hn         1 G0B       0.295500
    117 HN53         4.0010     5.1460    -2.1020 hn         1 G0B       0.283750
    118 HN57         4.1870    -4.2960     1.3810 hn         1 G0B       0.277500
    119 HN3B        -8.0070    -1.8100    -3.0500 hn         1 G0B       0.295500
    120 HN2B        -4.9880     6.8260     1.1830 hn         1 G0B       0.293000
    121 HN5C         3.8720    -4.2460    -0.2980 hn         1 G0B       0.277500
    122 HN1C        -5.4310    -0.0460     3.5130 hn         1 G0B       0.290750
    123 HN5D         4.2740     3.5210    -1.6440 hn         1 G0B       0.283750
    124 HN1D        -0.1790    -5.2900    -2.0520 hn         1 G0B       0.292750
@<TRIPOS>BOND
     1     1     2 1   
     2     1     3 1   
     3     1    10 1   
     4     1    88 1   
     5     2    17 1   
     6     3     4 1   
     7     3     5 1   
     8     3    99 1   
     9     4    43 1   
    10     4   100 1   
    11     5     6 1   
    12     5     7 1   
    13     5    97 1   
    14     6    98 1   
    15     7     8 1   
    16     7     9 1   
    17     7    95 1   
    18     8    96 1   
    19     9    10 1   
    20     9    11 1   
    21     9    89 1   
    22    11    35 1   
    23    11    90 1   
    24    11    91 1   
    25    12    13 1   
    26    12    14 1   
    27    12    20 1   
    28    12   112 1   
    29    13    49 1   
    30    13    79 1   
    31    14    15 1   
    32    14    40 1   
    33    14    77 1   
    34    15    16 1   
    35    15    17 1   
    36    15    76 1   
    37    16    21 1   
    38    17    18 1   
    39    17   111 1   
    40    18    19 1   
    41    18    20 1   
    42    18    84 1   
    43    19    52 1   
    44    19    85 1   
    45    20    82 1   
    46    20    83 1   
    47    21    22 1   
    48    21    25 1   
    49    21    71 1   
    50    22    23 1   
    51    22    36 1   
    52    22    69 1   
    53    23    24 1   
    54    23    31 1   
    55    23    68 1   
    56    24    25 1   
    57    24    26 1   
    58    24    72 1   
    59    26    39 1   
    60    26    73 1   
    61    26    74 1   
    62    27    28 1   
    63    27    32 1   
    64    27    38 1   
    65    27   109 1   
    66    28    29 1   
    67    28    37 1   
    68    28   107 1   
    69    29    30 1   
    70    29    42 1   
    71    29   103 1   
    72    30    31 1   
    73    30    33 1   
    74    30    67 1   
    75    32    33 1   
    76    32    34 1   
    77    32    66 1   
    78    34    41 1   
    79    34    64 1   
    80    34    65 1   
    81    35    46 1   
    82    35    92 1   
    83    36    70 1   
    84    37   108 1   
    85    38   110 1   
    86    39    75 1   
    87    40    78 1   
    88    41    58 1   
    89    41    63 1   
    90    42    55 1   
    91    42   104 1   
    92    43    44 1   
    93    43    45 1   
    94    44   113 1   
    95    44   122 1   
    96    45   101 1   
    97    45   102 1   
    98    46    47 1   
    99    46    48 1   
   100    47   114 1   
   101    47   124 1   
   102    48    93 1   
   103    48    94 1   
   104    49    50 1   
   105    49    51 1   
   106    50   115 1   
   107    50   120 1   
   108    51    80 1   
   109    51    81 1   
   110    52    53 1   
   111    52    54 1   
   112    53   116 1   
   113    53   119 1   
   114    54    86 1   
   115    54    87 1   
   116    55    56 1   
   117    55    57 1   
   118    56   117 1   
   119    56   123 1   
   120    57   105 1   
   121    57   106 1   
   122    58    59 1   
   123    58    60 1   
   124    59   118 1   
   125    59   121 1   
   126    60    61 1   
   127    60    62 1   
@<TRIPOS>SUBSTRUCTURE
     1 G0B         1 TEMP              0 ****  ****    0 ROOT
