@<TRIPOS>MOLECULE
G0B
  124   127     1     0     0
SMALL
No Charge or Current Charge


@<TRIPOS>ATOM
      1 C1          -2.7150    -2.3630    -0.2630 c6         1 G0B       0.159000
      2 O18         -2.6130    -0.9520     0.0090 os         1 G0B      -0.291000
      3 C2          -2.6350    -3.2000     1.0450 c6         1 G0B      -0.004000
      4 N8          -3.7090    -2.8560     2.0170 n7         1 G0B      -0.338000
      5 C3          -2.6980    -4.7120     0.6770 c6         1 G0B       0.032000
      6 O16         -2.5360    -5.5160     1.8490 oh         1 G0B      -0.306000
      7 C4          -1.5980    -5.0700    -0.3600 c6         1 G0B      -0.020000
      8 O17         -1.7500    -6.4300    -0.7850 oh         1 G0B      -0.301000
      9 C5          -1.6710    -4.1080    -1.5790 c6         1 G0B      -0.019000
     10 O7          -1.6220    -2.7470    -1.1140 os         1 G0B      -0.283000
     11 C6          -0.4810    -4.2990    -2.5660 c3         1 G0B      -0.023000
     12 C19         -2.5880     2.6910    -0.0320 c6         1 G0B       0.025000
     13 N25         -2.3320     3.6260     1.0880 n7         1 G0B      -0.359000
     14 C24         -1.3400     1.8120    -0.3780 c6         1 G0B       0.002000
     15 C23         -1.6930     0.7800    -1.5080 c6         1 G0B       0.037000
     16 O34         -0.6520    -0.1220    -1.9880 os         1 G0B      -0.255000
     17 C22         -2.9240    -0.0820    -1.1100 c6         1 G0B       0.033000
     18 C21         -4.1550     0.8060    -0.7900 c6         1 G0B       0.025000
     19 N29         -5.3180    -0.0250    -0.4170 n7         1 G0B      -0.356000
     20 C20         -3.8090     1.8090     0.3410 c6         1 G0B      -0.202000
     21 C35          0.7660     0.0790    -1.7700 c5         1 G0B       0.117000
     22 C36          1.1750    -0.2340    -0.3020 c5         1 G0B      -0.011000
     23 C37          2.7080    -0.4080    -0.5300 c5         1 G0B      -0.004000
     24 C38          2.7930    -1.0610    -1.9510 c5         1 G0B       0.024000
     25 O40          1.4640    -0.9320    -2.5090 os         1 G0B      -0.300000
     26 C39          3.1820    -2.5570    -1.9290 c3         1 G0B      -0.006000
     27 C47          5.0450     3.0790     2.5680 c6         1 G0B      -0.016000
     28 C46          4.2910     3.9010     1.4850 c6         1 G0B       0.039000
     29 C45          4.1180     3.0700     0.1810 c6         1 G0B       0.003000
     30 C44          3.4470     1.7110     0.5290 c6         1 G0B       0.152000
     31 O43          3.3470     0.8900    -0.6470 os         1 G0B      -0.269000
     32 C48          4.3460     1.7050     2.7770 c6         1 G0B      -0.018000
     33 O50          4.2550     1.0300     1.5070 os         1 G0B      -0.329000
     34 C49          5.1280     0.7640     3.7460 c3         1 G0B      -0.023000
     35 N12         -0.3260    -3.1690    -3.5100 n7         1 G0B      -0.345000
     36 O41          0.5990    -1.4460     0.1840 oh         1 G0B      -0.323000
     37 O59          5.0050     5.1100     1.2100 oh         1 G0B      -0.303000
     38 O60          5.0820     3.8160     3.7970 oh         1 G0B      -0.294000
     39 O42          3.3760    -3.0430    -3.2610 oh         1 G0B      -0.334000
     40 O33         -0.2600     2.6680    -0.7710 oh         1 G0B      -0.344000
     41 N55          4.4300    -0.5220     3.9990 n7         1 G0B      -0.303000
     42 N51          3.3510     3.8420    -0.8380 n7         1 G0B      -0.321000
     43 C9          -3.6680    -1.6800     2.8130 cz         1 G0B       0.403000
     44 N10         -2.4440    -1.0580     3.1310 n8         1 G0B      -0.358500
     45 N11         -4.8320    -1.2890     3.5000 n8         1 G0B      -0.358500
     46 C13         -1.3200    -2.9090    -4.4800 cz         1 G0B       0.378000
     47 N14         -1.5930    -3.8650    -5.4770 n8         1 G0B      -0.365500
     48 N15         -1.7400    -1.5820    -4.6830 n8         1 G0B      -0.365500
     49 C26         -1.6970     4.8750     0.8720 cz         1 G0B       0.397000
     50 N27         -0.5950     5.2350     1.6700 n8         1 G0B      -0.341000
     51 N28         -2.3540     5.8710     0.1250 n8         1 G0B      -0.341000
     52 C30         -6.6180     0.5390    -0.4150 cz         1 G0B       0.402000
     53 N31         -7.3390     0.6320     0.7890 n8         1 G0B      -0.345000
     54 N32         -7.2870     0.7480    -1.6350 n8         1 G0B      -0.345000
     55 C52          3.3070     3.4450    -2.2020 cz         1 G0B       0.404000
     56 N53          4.4630     2.9630    -2.8520 n8         1 G0B      -0.356500
     57 N54          2.1990     3.8180    -2.9870 n8         1 G0B      -0.356500
     58 C56          4.3690    -1.5310     3.0030 cz         1 G0B       0.404000
     59 N57          3.2920    -2.4340     3.0020 n8         1 G0B      -0.377500
     60 N58          5.5020    -1.8390     2.2250 n8         1 G0B      -0.377500
     61 HN58         5.7010    -1.2330     1.4290 hn         1 G0B       0.277500
     62 HN5A         6.3980    -1.9310     2.7030 hn         1 G0B       0.277500
     63 HN55         3.5800    -0.3350     4.5350 hn         1 G0B       0.282000
     64 H49          6.1340     0.5950     3.3390 h1         1 G0B       0.153500
     65 H49A         5.2670     1.2900     4.7010 h1         1 G0B       0.153500
     66 H48          3.3310     1.8620     3.1770 h1         1 G0B       0.116000
     67 H44          2.4460     1.8960     0.9430 h2         1 G0B       0.091000
     68 H37          3.2030    -0.9990     0.2520 h1         1 G0B       0.119000
     69 H36          0.9570     0.5890     0.3850 h1         1 G0B       0.113000
     70 HO41        -0.2080    -1.6030    -0.3480 ho         1 G0B       0.237000
     71 H35          1.0890     1.0760    -2.0940 h2         1 G0B       0.111000
     72 H38          3.5040    -0.5180    -2.5900 h1         1 G0B       0.127000
     73 H39          4.1080    -2.6720    -1.3500 h1         1 G0B       0.078000
     74 H39A         2.3960    -3.1270    -1.4160 h1         1 G0B       0.078000
     75 HO42         3.6310    -3.9830    -3.2000 ho         1 G0B       0.252000
     76 H23         -1.9880     1.3800    -2.3810 h1         1 G0B       0.126000
     77 H24         -1.0710     1.2480     0.5270 h1         1 G0B       0.105000
     78 HO33        -0.0490     3.2360    -0.0080 ho         1 G0B       0.244000
     79 HN25        -2.1040     3.0950     1.9300 hn         1 G0B       0.268000
     80 HN28        -1.8080     6.5000    -0.4620 hn         1 G0B       0.293000
     81 HN2A        -3.1760     5.6230    -0.4240 hn         1 G0B       0.293000
     82 H20         -3.6090     1.2660     1.2760 hc         1 G0B       0.116500
     83 H20A        -4.6740     2.4570     0.5440 hc         1 G0B       0.116500
     84 H21         -4.4070     1.3730    -1.7010 h1         1 G0B       0.135000
     85 HN29        -5.0480    -0.6160     0.3690 hn         1 G0B       0.257000
     86 HN32        -7.9250     1.5370    -1.7250 hn         1 G0B       0.295500
     87 HN3A        -6.7560     0.7200    -2.5040 hn         1 G0B       0.295500
     88 H1          -3.6710    -2.5680    -0.7690 h2         1 G0B       0.076000
     89 H5          -2.6160    -4.2580    -2.1240 h1         1 G0B       0.098000
     90 H6           0.4410    -4.4100    -1.9800 h1         1 G0B       0.135000
     91 H6A         -0.6240    -5.2440    -3.1090 h1         1 G0B       0.135000
     92 HN12         0.0250    -2.3670    -2.9770 hn         1 G0B       0.290000
     93 HN15        -1.9150    -1.2590    -5.6330 hn         1 G0B       0.292750
     94 HN1A        -1.2290    -0.8290    -4.2240 hn         1 G0B       0.292750
     95 H4          -0.6180    -4.9380     0.1260 h1         1 G0B       0.118000
     96 HO17        -0.9120    -6.7070    -1.2010 ho         1 G0B       0.246000
     97 H3          -3.6790    -4.9180     0.2200 h1         1 G0B       0.097000
     98 HO16        -2.4940    -6.4450     1.5520 ho         1 G0B       0.273000
     99 H2          -1.6520    -3.0160     1.5050 h1         1 G0B       0.151000
    100 HN8         -4.6110    -3.1840     1.6690 hn         1 G0B       0.275000
    101 HN11        -4.7430    -0.7430     4.3550 hn         1 G0B       0.290750
    102 HN1B        -5.5390    -1.9930     3.7070 hn         1 G0B       0.290750
    103 H45          5.1250     2.8550    -0.2070 h1         1 G0B       0.159000
    104 HN51         2.4990     4.2100    -0.4150 hn         1 G0B       0.275000
    105 HN54         1.5670     4.5410    -2.6490 hn         1 G0B       0.283750
    106 HN5B         2.3360     4.0170    -3.9770 hn         1 G0B       0.283750
    107 H46          3.2910     4.1450     1.8770 h1         1 G0B       0.095000
    108 HO59         5.1470     5.5570     2.0660 ho         1 G0B       0.272000
    109 H47          6.0700     2.8970     2.2080 h1         1 G0B       0.120000
    110 HO60         5.8750     3.5320     4.2900 ho         1 G0B       0.251000
    111 H22         -3.1820    -0.7020    -1.9830 h1         1 G0B       0.134000
    112 H19         -2.8570     3.2740    -0.9290 h1         1 G0B       0.137000
    113 HN10        -1.7480    -0.9490     2.3950 hn         1 G0B       0.290750
    114 HN14        -2.5280    -3.9110    -5.8800 hn         1 G0B       0.292750
    115 HN27        -0.4880     4.8100     2.5890 hn         1 G0B       0.293000
    116 HN31        -7.0300     0.1050     1.6040 hn         1 G0B       0.295500
    117 HN53         4.3760     2.5590    -3.7830 hn         1 G0B       0.283750
    118 HN57         2.7930    -2.6140     3.8720 hn         1 G0B       0.277500
    119 HN3B        -8.3540     0.5370     0.7690 hn         1 G0B       0.295500
    120 HN2B        -0.3910     6.2240     1.8080 hn         1 G0B       0.293000
    121 HN5C         3.4170    -3.3450     2.5640 hn         1 G0B       0.277500
    122 HN1C        -2.4480    -0.1740     3.6360 hn         1 G0B       0.290750
    123 HN5D         5.0900     2.3410    -2.3460 hn         1 G0B       0.283750
    124 HN1D        -1.3060    -4.8310    -5.3340 hn         1 G0B       0.292750
@<TRIPOS>BOND
     1     1     2 1   
     2     1     3 1   
     3     1    10 1   
     4     1    88 1   
     5     2    17 1   
     6     3     4 1   
     7     3     5 1   
     8     3    99 1   
     9     4    43 1   
    10     4   100 1   
    11     5     6 1   
    12     5     7 1   
    13     5    97 1   
    14     6    98 1   
    15     7     8 1   
    16     7     9 1   
    17     7    95 1   
    18     8    96 1   
    19     9    10 1   
    20     9    11 1   
    21     9    89 1   
    22    11    35 1   
    23    11    90 1   
    24    11    91 1   
    25    12    13 1   
    26    12    14 1   
    27    12    20 1   
    28    12   112 1   
    29    13    49 1   
    30    13    79 1   
    31    14    15 1   
    32    14    40 1   
    33    14    77 1   
    34    15    16 1   
    35    15    17 1   
    36    15    76 1   
    37    16    21 1   
    38    17    18 1   
    39    17   111 1   
    40    18    19 1   
    41    18    20 1   
    42    18    84 1   
    43    19    52 1   
    44    19    85 1   
    45    20    82 1   
    46    20    83 1   
    47    21    22 1   
    48    21    25 1   
    49    21    71 1   
    50    22    23 1   
    51    22    36 1   
    52    22    69 1   
    53    23    24 1   
    54    23    31 1   
    55    23    68 1   
    56    24    25 1   
    57    24    26 1   
    58    24    72 1   
    59    26    39 1   
    60    26    73 1   
    61    26    74 1   
    62    27    28 1   
    63    27    32 1   
    64    27    38 1   
    65    27   109 1   
    66    28    29 1   
    67    28    37 1   
    68    28   107 1   
    69    29    30 1   
    70    29    42 1   
    71    29   103 1   
    72    30    31 1   
    73    30    33 1   
    74    30    67 1   
    75    32    33 1   
    76    32    34 1   
    77    32    66 1   
    78    34    41 1   
    79    34    64 1   
    80    34    65 1   
    81    35    46 1   
    82    35    92 1   
    83    36    70 1   
    84    37   108 1   
    85    38   110 1   
    86    39    75 1   
    87    40    78 1   
    88    41    58 1   
    89    41    63 1   
    90    42    55 1   
    91    42   104 1   
    92    43    44 1   
    93    43    45 1   
    94    44   113 1   
    95    44   122 1   
    96    45   101 1   
    97    45   102 1   
    98    46    47 1   
    99    46    48 1   
   100    47   114 1   
   101    47   124 1   
   102    48    93 1   
   103    48    94 1   
   104    49    50 1   
   105    49    51 1   
   106    50   115 1   
   107    50   120 1   
   108    51    80 1   
   109    51    81 1   
   110    52    53 1   
   111    52    54 1   
   112    53   116 1   
   113    53   119 1   
   114    54    86 1   
   115    54    87 1   
   116    55    56 1   
   117    55    57 1   
   118    56   117 1   
   119    56   123 1   
   120    57   105 1   
   121    57   106 1   
   122    58    59 1   
   123    58    60 1   
   124    59   118 1   
   125    59   121 1   
   126    60    61 1   
   127    60    62 1   
@<TRIPOS>SUBSTRUCTURE
     1 G0B         1 TEMP              0 ****  ****    0 ROOT
