@<TRIPOS>MOLECULE
G0C
   38    38     1     0     0
SMALL
No Charge or Current Charge


@<TRIPOS>ATOM
      1 C4          25.8000    14.1760    48.8050 ca         1 G0C      -0.131900
      2 C5          25.0030    13.0490    49.1530 ca         1 G0C      -0.023300
      3 C6          23.8760    13.2500    49.9770 ca         1 G0C       0.273900
      4 N1          23.4970    14.4580    50.4560 nb         1 G0C      -0.670000
      5 C3          25.4100    15.4360    49.3090 ca         1 G0C       0.105100
      6 OP1         28.1810     9.4520    50.1540 o          1 G0C      -0.916500
      7 P           26.8720     9.6300    49.4700 p5         1 G0C       1.259900
      8 OP2         25.8150     8.9230    50.2440 o          1 G0C      -0.916500
      9 OP3         26.9530     9.0750    48.0920 o          1 G0C      -0.916500
     10 OP4         26.5330    11.2000    49.4080 os         1 G0C      -0.576400
     11 C5A         25.3360    11.6160    48.7400 c3         1 G0C       0.265900
     12 C2          24.2520    15.5300    50.1290 ca         1 G0C       0.202300
     13 C2A         23.7810    16.8650    50.6950 c3         1 G0C      -0.130400
     14 O3          26.1440    16.5530    48.9920 oh         1 G0C      -0.510100
     15 C4A         26.9920    14.0920    47.9090 ce         1 G0C       0.485800
     16 N           26.9680    13.4210    46.7960 n2         1 G0C      -0.623900
     17 CA          28.1670    13.3300    45.9580 c3         1 G0C       0.117800
     18 CB          28.9700    12.0670    46.3300 c3         1 G0C      -0.132400
     19 CG          30.2120    11.8370    45.4450 c3         1 G0C       0.109600
     20 SD          31.4580    13.2020    45.6230 ss         1 G0C      -0.546000
     21 CE          32.1560    12.8100    47.2960 c3         1 G0C       0.063900
     22 H1          23.2520    12.4080    50.2740 h4         1 G0C       0.018100
     23 H4          24.4960    10.9620    49.0110 h1         1 G0C       0.016700
     24 H5          25.4490    11.5490    47.6520 h1         1 G0C       0.016700
     25 H6          22.8790    16.7580    51.3100 hc         1 G0C       0.027033
     26 H7          24.5540    17.3180    51.3280 hc         1 G0C       0.027033
     27 H8          23.5450    17.5720    49.8900 hc         1 G0C       0.027033
     28 H9          25.7280    17.3340    49.4150 ho         1 G0C       0.437000
     29 H10         27.8320    14.7480    48.1540 h4         1 G0C       0.060800
     30 H11         28.8000    14.2200    46.0770 h1         1 G0C       0.036700
     31 H12         28.3130    11.1940    46.2360 hc         1 G0C       0.105200
     32 H13         29.9010    11.7750    44.3930 h1         1 G0C       0.064700
     33 H14         30.6850    10.8820    45.7110 h1         1 G0C       0.064700
     34 H15         32.9760    13.5030    47.5260 h1         1 G0C       0.055033
     35 H16         31.3800    12.9140    48.0650 h1         1 G0C       0.055033
     36 H17         32.5430    11.7830    47.3100 h1         1 G0C       0.055033
     37 H18         27.8820    13.2710    44.8990 h1         1 G0C       0.036700
     38 H19         29.2700    12.1150    47.3830 hc         1 G0C       0.105200
@<TRIPOS>BOND
     1     1     2 ar  
     2     1     5 ar  
     3     1    15 1   
     4     2     3 ar  
     5     2    11 1   
     6     3     4 ar  
     7     3    22 1   
     8     4    12 ar  
     9     5    12 ar  
    10     5    14 1   
    11     6     7 1   
    12     7     8 1   
    13     7     9 1   
    14     7    10 1   
    15    10    11 1   
    16    11    23 1   
    17    11    24 1   
    18    12    13 1   
    19    13    25 1   
    20    13    26 1   
    21    13    27 1   
    22    14    28 1   
    23    15    16 2   
    24    15    29 1   
    25    16    17 1   
    26    17    18 1   
    27    17    30 1   
    28    17    37 1   
    29    18    19 1   
    30    18    31 1   
    31    18    38 1   
    32    19    20 1   
    33    19    32 1   
    34    19    33 1   
    35    20    21 1   
    36    21    34 1   
    37    21    35 1   
    38    21    36 1   
@<TRIPOS>SUBSTRUCTURE
     1 G0C         1 TEMP              0 ****  ****    0 ROOT
