@<TRIPOS>MOLECULE
G0C
   38    38     1     0     0
SMALL
abcg2


@<TRIPOS>ATOM
      1 C4          25.6660    13.8680    48.8110 ca         1 G0C      -0.131900
      2 C5          24.9030    12.8990    49.4830 ca         1 G0C      -0.023300
      3 C6          23.9060    13.3360    50.3370 ca         1 G0C       0.273900
      4 N1          23.6280    14.6140    50.5610 nb         1 G0C      -0.670000
      5 C3          25.3660    15.2130    49.0480 ca         1 G0C       0.105100
      6 OP1         28.2930     9.4380    49.8870 o          1 G0C      -0.916500
      7 P           26.9260     9.4850    49.2200 p5         1 G0C       1.259900
      8 OP2         25.9050     8.4730    49.7270 o          1 G0C      -0.916500
      9 OP3         26.9540     9.6340    47.6980 o          1 G0C      -0.916500
     10 OP4         26.3380    11.0060    49.7930 os         1 G0C      -0.576400
     11 C5A         25.1070    11.4180    49.2800 c3         1 G0C       0.265900
     12 C2          24.3310    15.5460    49.9400 ca         1 G0C       0.202300
     13 C2A         23.9910    16.9820    50.2110 c3         1 G0C      -0.130400
     14 O3          26.0840    16.1670    48.4340 oh         1 G0C      -0.510100
     15 C4A         26.7580    13.4300    47.9190 ce         1 G0C       0.485800
     16 N           27.1330    14.0860    46.9060 n2         1 G0C      -0.623900
     17 CA          28.2270    13.5940    46.1010 c3         1 G0C       0.117800
     18 CB          29.0150    12.3820    46.5820 c3         1 G0C      -0.132400
     19 CG          30.1700    12.0430    45.6500 c3         1 G0C       0.109600
     20 SD          31.4970    13.2830    45.5890 ss         1 G0C      -0.546000
     21 CE          32.2270    13.0650    47.2280 c3         1 G0C       0.063900
     22 H1          23.2960    12.6120    50.8670 h4         1 G0C       0.018100
     23 H4          24.2680    10.8950    49.7620 h1         1 G0C       0.016700
     24 H5          25.0240    11.1990    48.2060 h1         1 G0C       0.016700
     25 H6          23.1620    17.0360    50.9120 hc         1 G0C       0.027033
     26 H7          24.8280    17.5330    50.6500 hc         1 G0C       0.027033
     27 H8          23.6910    17.5130    49.3030 hc         1 G0C       0.027033
     28 H9          25.8450    17.0410    48.7630 ho         1 G0C       0.437000
     29 H10         27.2060    12.4800    48.2040 h4         1 G0C       0.060800
     30 H11         28.9130    14.4360    45.9600 h1         1 G0C       0.036700
     31 H12         28.3710    11.5010    46.6550 hc         1 G0C       0.105200
     32 H13         29.8180    11.9420    44.6210 h1         1 G0C       0.064700
     33 H14         30.6140    11.0850    45.9280 h1         1 G0C       0.064700
     34 H15         33.0780    13.7390    47.2970 h1         1 G0C       0.055033
     35 H16         31.5250    13.3150    48.0210 h1         1 G0C       0.055033
     36 H17         32.5780    12.0430    47.3660 h1         1 G0C       0.055033
     37 H18         27.8230    13.3930    45.1020 h1         1 G0C       0.036700
     38 H19         29.3970    12.5560    47.5920 hc         1 G0C       0.105200
@<TRIPOS>BOND
     1     1     2 ar  
     2     1     5 ar  
     3     1    15 1   
     4     2     3 ar  
     5     2    11 1   
     6     3     4 ar  
     7     3    22 1   
     8     4    12 ar  
     9     5    12 ar  
    10     5    14 1   
    11     6     7 1   
    12     7     8 1   
    13     7     9 1   
    14     7    10 1   
    15    10    11 1   
    16    11    23 1   
    17    11    24 1   
    18    12    13 1   
    19    13    25 1   
    20    13    26 1   
    21    13    27 1   
    22    14    28 1   
    23    15    16 2   
    24    15    29 1   
    25    16    17 1   
    26    17    18 1   
    27    17    30 1   
    28    17    37 1   
    29    18    19 1   
    30    18    31 1   
    31    18    38 1   
    32    19    20 1   
    33    19    32 1   
    34    19    33 1   
    35    20    21 1   
    36    21    34 1   
    37    21    35 1   
    38    21    36 1   
@<TRIPOS>SUBSTRUCTURE
     1 G0C         1 TEMP              0 ****  ****    0 ROOT
