@<TRIPOS>MOLECULE
G0D
   71    73     1     0     0
SMALL
abcg2


@<TRIPOS>ATOM
      1 C10         -1.0010     1.3160    -0.2150 c3         1 G0D       0.029600
      2 C12          1.5830     0.3210    -0.5110 c3         1 G0D      -0.024700
      3 C13          1.9380     0.9300    -1.8700 c3         1 G0D      -0.018100
      4 C14          3.3820     1.3500    -1.9470 ca         1 G0D      -0.091300
      5 C15          4.2800     0.6550    -2.7530 ca         1 G0D      -0.104500
      6 C16          5.6150     1.0370    -2.8240 ca         1 G0D      -0.111500
      7 C17          6.0720     2.1150    -2.0790 ca         1 G0D      -0.113000
      8 C18          5.1860     2.8080    -1.2620 ca         1 G0D      -0.111500
      9 C19          3.8530     2.4280    -1.2000 ca         1 G0D      -0.104500
     10 C20          2.4440    -0.9010    -0.2400 c          1 G0D       0.623100
     11 C23          4.0920    -1.8650     1.3160 c3         1 G0D       0.150300
     12 C24          5.5090    -1.3690     1.4260 ca         1 G0D      -0.164300
     13 C25          6.3150    -1.7660     2.4880 ca         1 G0D       0.340900
     14 N26          7.5820    -1.4000     2.6370 nb         1 G0D      -0.665000
     15 C01         -6.7310    -1.9090    -0.1080 c3         1 G0D      -0.108433
     16 C02         -5.5680    -2.4320    -0.9420 c3         1 G0D       0.225000
     17 C03         -4.9570    -3.6950    -0.3450 c3         1 G0D      -0.108433
     18 C04         -6.0350    -2.7180    -2.3640 c3         1 G0D      -0.108433
     19 C06         -3.9000    -0.8510    -0.1130 c          1 G0D       0.656100
     20 C09         -2.4090     1.0560     0.3060 c3         1 G0D       0.136700
     21 C27          8.1080    -0.6000     1.7180 ca         1 G0D       0.334900
     22 C28          7.3930    -0.1330     0.6240 ca         1 G0D      -0.165000
     23 C29          6.0720    -0.5240     0.4780 ca         1 G0D      -0.059000
     24 C30         -3.1640     2.3850     0.4730 c3         1 G0D      -0.054100
     25 C31         -4.5640     2.1830     0.9740 ca         1 G0D      -0.083300
     26 C32         -5.6340     2.0890     0.0880 ca         1 G0D      -0.098000
     27 C33         -6.9230     1.8540     0.5500 ca         1 G0D      -0.107000
     28 C34         -7.1600     1.7100     1.9090 ca         1 G0D      -0.106000
     29 C35         -6.1010     1.8070     2.8030 ca         1 G0D      -0.107000
     30 C36         -4.8150     2.0390     2.3370 ca         1 G0D      -0.098000
     31 N08         -3.1080     0.1480    -0.5720 ns         1 G0D      -0.496900
     32 N22          3.1860    -0.8320     0.8750 ns         1 G0D      -0.497900
     33 O05         -4.5710    -1.3930    -1.1290 os         1 G0D      -0.478100
     34 O07         -3.9500    -1.2110     1.0430 o          1 G0D      -0.539000
     35 O21          2.4370    -1.8520    -1.0060 o          1 G0D      -0.585100
     36 S11         -0.1430    -0.2670    -0.4560 ss         1 G0D      -0.341000
     37 H1          -1.0340     1.8740    -1.1540 h1         1 G0D       0.060200
     38 H2          -0.4510     1.9150     0.5120 h1         1 G0D       0.060200
     39 H3           1.7070     1.0650     0.2800 h1         1 G0D       0.064700
     40 H4           1.7180     0.2020    -2.6510 hc         1 G0D       0.066700
     41 H5           1.2900     1.7910    -2.0460 hc         1 G0D       0.066700
     42 H6           3.9310    -0.1910    -3.3320 ha         1 G0D       0.116000
     43 H7           6.2980     0.4870    -3.4600 ha         1 G0D       0.115000
     44 H8           7.1110     2.4120    -2.1320 ha         1 G0D       0.113000
     45 H9           5.5340     3.6500    -0.6780 ha         1 G0D       0.115000
     46 H10          3.1700     2.9830    -0.5670 ha         1 G0D       0.116000
     47 H11          4.0390    -2.6870     0.6020 h1         1 G0D       0.069700
     48 H12          3.7630    -2.2610     2.2790 h1         1 G0D       0.069700
     49 H13          5.9060    -2.4110     3.2600 h4         1 G0D       0.017100
     50 H14         -7.1560    -1.0090    -0.5550 hc         1 G0D       0.048922
     51 H15         -7.5160    -2.6650    -0.0670 hc         1 G0D       0.048922
     52 H16         -6.4370    -1.6730     0.9130 hc         1 G0D       0.048922
     53 H17         -5.6920    -4.5000    -0.3920 hc         1 G0D       0.048922
     54 H18         -4.0840    -4.0120    -0.9170 hc         1 G0D       0.048922
     55 H19         -4.6670    -3.5700     0.6940 hc         1 G0D       0.048922
     56 H20         -6.4390    -1.8230    -2.8390 hc         1 G0D       0.048922
     57 H21         -5.2180    -3.0960    -2.9800 hc         1 G0D       0.048922
     58 H22         -6.8210    -3.4730    -2.3520 hc         1 G0D       0.048922
     59 H23         -2.3330     0.5700     1.2790 h1         1 G0D       0.098700
     60 H24          9.1430    -0.3100     1.8600 h4         1 G0D       0.018100
     61 H25          7.8620     0.5240    -0.0950 ha         1 G0D       0.123000
     62 H26          5.4900    -0.1650    -0.3620 ha         1 G0D       0.133000
     63 H27         -2.6000     3.0150     1.1650 hc         1 G0D       0.050200
     64 H28         -3.1800     2.9080    -0.4880 hc         1 G0D       0.050200
     65 H29         -5.4610     2.2070    -0.9750 ha         1 G0D       0.108500
     66 H30         -7.7400     1.7840    -0.1560 ha         1 G0D       0.112000
     67 H31         -8.1640     1.5280     2.2710 ha         1 G0D       0.112000
     68 H32         -6.2770     1.7020     3.8670 ha         1 G0D       0.112000
     69 H33         -3.9940     2.1080     3.0410 ha         1 G0D       0.108500
     70 H34         -3.2240     0.4320    -1.5340 hn         1 G0D       0.319500
     71 H35          3.1060    -0.0150     1.4590 hn         1 G0D       0.315500
@<TRIPOS>BOND
     1     1    20 1   
     2     1    36 1   
     3     1    37 1   
     4     1    38 1   
     5     2     3 1   
     6     2    10 1   
     7     2    36 1   
     8     2    39 1   
     9     3     4 1   
    10     3    40 1   
    11     3    41 1   
    12     4     5 ar  
    13     4     9 ar  
    14     5     6 ar  
    15     5    42 1   
    16     6     7 ar  
    17     6    43 1   
    18     7     8 ar  
    19     7    44 1   
    20     8     9 ar  
    21     8    45 1   
    22     9    46 1   
    23    10    32 1   
    24    10    35 2   
    25    11    12 1   
    26    11    32 1   
    27    11    47 1   
    28    11    48 1   
    29    12    13 ar  
    30    12    23 ar  
    31    13    14 ar  
    32    13    49 1   
    33    14    21 ar  
    34    15    16 1   
    35    15    50 1   
    36    15    51 1   
    37    15    52 1   
    38    16    17 1   
    39    16    18 1   
    40    16    33 1   
    41    17    53 1   
    42    17    54 1   
    43    17    55 1   
    44    18    56 1   
    45    18    57 1   
    46    18    58 1   
    47    19    31 1   
    48    19    33 1   
    49    19    34 2   
    50    20    24 1   
    51    20    31 1   
    52    20    59 1   
    53    21    22 ar  
    54    21    60 1   
    55    22    23 ar  
    56    22    61 1   
    57    23    62 1   
    58    24    25 1   
    59    24    63 1   
    60    24    64 1   
    61    25    26 ar  
    62    25    30 ar  
    63    26    27 ar  
    64    26    65 1   
    65    27    28 ar  
    66    27    66 1   
    67    28    29 ar  
    68    28    67 1   
    69    29    30 ar  
    70    29    68 1   
    71    30    69 1   
    72    31    70 1   
    73    32    71 1   
@<TRIPOS>SUBSTRUCTURE
     1 G0D         1 TEMP              0 ****  ****    0 ROOT
