@<TRIPOS>MOLECULE
G0D
   71    73     1     0     0
SMALL
No Charge or Current Charge


@<TRIPOS>ATOM
      1 C10         -0.9510     0.9910     0.3360 c3         1 G0D       0.029600
      2 C12          1.6280    -0.1450    -0.1690 c3         1 G0D      -0.024700
      3 C13          1.7640     0.3120    -1.6420 c3         1 G0D      -0.018100
      4 C14          3.1710     0.8030    -1.9690 ca         1 G0D      -0.091300
      5 C15          3.9770     0.0980    -2.8850 ca         1 G0D      -0.104500
      6 C16          5.2760     0.5490    -3.1820 ca         1 G0D      -0.111500
      7 C17          5.7780     1.7050    -2.5610 ca         1 G0D      -0.113000
      8 C18          4.9810     2.4100    -1.6440 ca         1 G0D      -0.111500
      9 C19          3.6810     1.9630    -1.3510 ca         1 G0D      -0.104500
     10 C20          2.6370    -1.2730     0.1530 c          1 G0D       0.623100
     11 C23          4.7560    -1.7770     1.4160 c3         1 G0D       0.150300
     12 C24          6.0470    -0.9830     1.4990 ca         1 G0D      -0.164300
     13 C25          6.7250    -0.8330     2.7250 ca         1 G0D       0.340900
     14 N26          7.8760    -0.1310     2.8530 nb         1 G0D      -0.665000
     15 C01         -6.9880    -1.5890    -0.6180 c3         1 G0D      -0.108433
     16 C02         -5.7590    -2.1660    -1.3690 c3         1 G0D       0.225000
     17 C03         -5.3160    -3.5530    -0.8370 c3         1 G0D      -0.108433
     18 C04         -6.0610    -2.2540    -2.8810 c3         1 G0D      -0.108433
     19 C06         -4.1060    -0.8640    -0.0820 c          1 G0D       0.656100
     20 C09         -2.4460     0.8470     0.7010 c3         1 G0D       0.136700
     21 C27          8.3890     0.4490     1.7430 ca         1 G0D       0.334900
     22 C28          7.7810     0.3490     0.4800 ca         1 G0D      -0.165000
     23 C29          6.5890    -0.3800     0.3490 ca         1 G0D      -0.059000
     24 C30         -3.1170     2.2190     0.9590 c3         1 G0D      -0.054100
     25 C31         -4.5970     2.1020     1.3160 ca         1 G0D      -0.083300
     26 C32         -5.5860     2.3000     0.3310 ca         1 G0D      -0.098000
     27 C33         -6.9470     2.1650     0.6550 ca         1 G0D      -0.107000
     28 C34         -7.3280     1.8320     1.9660 ca         1 G0D      -0.106000
     29 C35         -6.3470     1.6350     2.9520 ca         1 G0D      -0.107000
     30 C36         -4.9850     1.7690     2.6280 ca         1 G0D      -0.098000
     31 N08         -3.1730     0.1000    -0.3310 ns         1 G0D      -0.496900
     32 N22          3.6470    -0.9120     1.0180 ns         1 G0D      -0.497900
     33 O05         -4.6580    -1.2320    -1.2790 os         1 G0D      -0.478100
     34 O07         -4.3820    -1.2980     1.0240 o          1 G0D      -0.539000
     35 O21          2.5520    -2.4050    -0.3090 o          1 G0D      -0.585100
     36 S11         -0.1230    -0.6630     0.1990 ss         1 G0D      -0.341000
     37 H1          -0.8560     1.5290    -0.6150 h1         1 G0D       0.060200
     38 H2          -0.4410     1.5730     1.1140 h1         1 G0D       0.060200
     39 H3           1.8610     0.7030     0.4860 h1         1 G0D       0.064700
     40 H4           1.4810    -0.5180    -2.3010 hc         1 G0D       0.066700
     41 H5           1.0480     1.1160    -1.8430 hc         1 G0D       0.066700
     42 H6           3.6010    -0.8000    -3.3690 ha         1 G0D       0.116000
     43 H7           5.8930     0.0010    -3.8910 ha         1 G0D       0.115000
     44 H8           6.7840     2.0520    -2.7890 ha         1 G0D       0.113000
     45 H9           5.3690     3.3050    -1.1630 ha         1 G0D       0.115000
     46 H10          3.0700     2.5210    -0.6450 ha         1 G0D       0.116000
     47 H11          4.8800    -2.5890     0.6870 h1         1 G0D       0.069700
     48 H12          4.5210    -2.2290     2.3890 h1         1 G0D       0.069700
     49 H13          6.3350    -1.2860     3.6350 h4         1 G0D       0.017100
     50 H14         -7.1710    -0.5490    -0.9140 hc         1 G0D       0.048922
     51 H15         -7.8870    -2.1710    -0.8530 hc         1 G0D       0.048922
     52 H16         -6.8570    -1.6190     0.4690 hc         1 G0D       0.048922
     53 H17         -6.0480    -4.3200    -1.1160 hc         1 G0D       0.048922
     54 H18         -4.3460    -3.8410    -1.2600 hc         1 G0D       0.048922
     55 H19         -5.2350    -3.5670     0.2550 hc         1 G0D       0.048922
     56 H20         -6.3310    -1.2700    -3.2830 hc         1 G0D       0.048922
     57 H21         -5.1860    -2.6200    -3.4330 hc         1 G0D       0.048922
     58 H22         -6.8940    -2.9400    -3.0740 hc         1 G0D       0.048922
     59 H23         -2.4950     0.2760     1.6390 h1         1 G0D       0.098700
     60 H24          9.3140     1.0090     1.8710 h4         1 G0D       0.018100
     61 H25          8.2320     0.8340    -0.3810 ha         1 G0D       0.123000
     62 H26          6.0970    -0.4740    -0.6170 ha         1 G0D       0.133000
     63 H27         -2.5820     2.7300     1.7680 hc         1 G0D       0.050200
     64 H28         -2.9940     2.8490     0.0700 hc         1 G0D       0.050200
     65 H29         -5.3000     2.5500    -0.6880 ha         1 G0D       0.108500
     66 H30         -7.7050     2.3160    -0.1100 ha         1 G0D       0.112000
     67 H31         -8.3810     1.7260     2.2160 ha         1 G0D       0.112000
     68 H32         -6.6400     1.3750     3.9670 ha         1 G0D       0.112000
     69 H33         -4.2320     1.6070     3.3960 ha         1 G0D       0.108500
     70 H34         -3.0460     0.3490    -1.3020 hn         1 G0D       0.319500
     71 H35          3.6460     0.0450     1.3490 hn         1 G0D       0.315500
@<TRIPOS>BOND
     1     1    20 1   
     2     1    36 1   
     3     1    37 1   
     4     1    38 1   
     5     2     3 1   
     6     2    10 1   
     7     2    36 1   
     8     2    39 1   
     9     3     4 1   
    10     3    40 1   
    11     3    41 1   
    12     4     5 ar  
    13     4     9 ar  
    14     5     6 ar  
    15     5    42 1   
    16     6     7 ar  
    17     6    43 1   
    18     7     8 ar  
    19     7    44 1   
    20     8     9 ar  
    21     8    45 1   
    22     9    46 1   
    23    10    32 1   
    24    10    35 2   
    25    11    12 1   
    26    11    32 1   
    27    11    47 1   
    28    11    48 1   
    29    12    13 ar  
    30    12    23 ar  
    31    13    14 ar  
    32    13    49 1   
    33    14    21 ar  
    34    15    16 1   
    35    15    50 1   
    36    15    51 1   
    37    15    52 1   
    38    16    17 1   
    39    16    18 1   
    40    16    33 1   
    41    17    53 1   
    42    17    54 1   
    43    17    55 1   
    44    18    56 1   
    45    18    57 1   
    46    18    58 1   
    47    19    31 1   
    48    19    33 1   
    49    19    34 2   
    50    20    24 1   
    51    20    31 1   
    52    20    59 1   
    53    21    22 ar  
    54    21    60 1   
    55    22    23 ar  
    56    22    61 1   
    57    23    62 1   
    58    24    25 1   
    59    24    63 1   
    60    24    64 1   
    61    25    26 ar  
    62    25    30 ar  
    63    26    27 ar  
    64    26    65 1   
    65    27    28 ar  
    66    27    66 1   
    67    28    29 ar  
    68    28    67 1   
    69    29    30 ar  
    70    29    68 1   
    71    30    69 1   
    72    31    70 1   
    73    32    71 1   
@<TRIPOS>SUBSTRUCTURE
     1 G0D         1 TEMP              0 ****  ****    0 ROOT
