@<TRIPOS>MOLECULE
G0E
   56    60     1     0     0
SMALL
No Charge or Current Charge


@<TRIPOS>ATOM
      1 FAQ         -9.0050     0.9020     0.1270 f          1 G0E      -0.114000
      2 CAP         -7.9080     1.6630     0.3450 c3         1 G0E       0.356300
      3 FAR         -7.7470     2.4290    -0.7590 f          1 G0E      -0.114000
      4 FAS         -8.2030     2.4980     1.3660 f          1 G0E      -0.114000
      5 CAN         -6.6620     0.8220     0.6550 ca         1 G0E      -0.167300
      6 CAL         -5.3710     1.3260     0.3800 ca         1 G0E      -0.126000
      7 CAO         -6.7820    -0.4550     1.2430 ca         1 G0E      -0.088000
      8 CAM         -5.6360    -1.2130     1.5310 ca         1 G0E      -0.091000
      9 CAK         -4.3580    -0.7060     1.2440 ca         1 G0E      -0.102000
     10 CAJ         -4.2150     0.5750     0.6670 ca         1 G0E      -0.018000
     11 NAH         -2.9580     1.1630     0.3490 ns         1 G0E      -0.142000
     12 CAG         -1.6470     0.7400     0.5370 c          1 G0E       0.624700
     13 OAI         -1.3530    -0.3210     1.0770 o          1 G0E      -0.573100
     14 CAA         -0.5700     1.6830     0.0280 ca         1 G0E      -0.144600
     15 CAB          0.7900     1.3310     0.1900 ca         1 G0E      -0.052000
     16 CAC         -0.8730     2.9110    -0.6050 ca         1 G0E      -0.095000
     17 CAE          0.1560     3.7550    -1.0510 ca         1 G0E      -0.100000
     18 CAF          1.5080     3.3960    -0.8880 ca         1 G0E      -0.082300
     19 CAT          2.5930     4.3450    -1.3960 c3         1 G0E      -0.054800
     20 CAD          1.8310     2.1630    -0.2730 ca         1 G0E       0.286000
     21 NAU          3.1800     1.8040    -0.1030 nu         1 G0E      -0.936900
     22 C4           3.8490     0.5940    -0.0270 ca         1 G0E       0.467900
     23 N3           3.1910    -0.5410    -0.3190 nb         1 G0E      -0.297000
     24 C5           5.1950     0.5340     0.2970 ca         1 G0E      -0.391900
     25 CBB          6.1590     1.5410     0.6460 cc         1 G0E       0.385800
     26 NBC          7.3610     1.0040     0.8950 nd         1 G0E      -0.515100
     27 NBD          7.1340    -0.3570     0.6960 na         1 G0E      -0.015100
     28 CBK          8.1870    -1.3710     0.8570 c3         1 G0E       0.079900
     29 C6           5.8360    -0.6650     0.3360 ca         1 G0E       0.163500
     30 N1           5.1940    -1.8150     0.0610 nb         1 G0E      -0.224000
     31 C2           3.8810    -1.7070    -0.2600 cp         1 G0E       0.279500
     32 CBE          3.1280    -2.9690    -0.5520 cp         1 G0E      -0.259500
     33 CBF          3.7500    -4.2460    -0.5330 ca         1 G0E       0.148900
     34 NBH          3.0750    -5.3830    -0.7940 nb         1 G0E      -0.182500
     35 CBJ          1.7630    -5.2540    -1.0780 ca         1 G0E       0.129900
     36 NBI          1.0610    -4.1040    -1.1260 nb         1 G0E      -0.182500
     37 CBG          1.7420    -2.9700    -0.8640 ca         1 G0E       0.148900
     38 H1          -5.2640     2.3160    -0.0600 ha         1 G0E       0.122000
     39 H2          -7.7620    -0.8660     1.4800 ha         1 G0E       0.134000
     40 H3          -5.7390    -2.1990     1.9800 ha         1 G0E       0.123000
     41 H4          -3.4980    -1.3250     1.4790 ha         1 G0E       0.155000
     42 H5          -3.0380     2.0630    -0.1020 hn         1 G0E       0.156000
     43 H6           1.0410     0.4070     0.6990 ha         1 G0E       0.159000
     44 H7          -1.9000     3.2340    -0.7570 ha         1 G0E       0.116000
     45 H8          -0.1030     4.6970    -1.5290 ha         1 G0E       0.120000
     46 H9           3.2020     4.7280    -0.5680 hc         1 G0E       0.048367
     47 H10          3.2610     3.8420    -2.1060 hc         1 G0E       0.048367
     48 H11          2.1660     5.2120    -1.9140 hc         1 G0E       0.048367
     49 H12          3.8160     2.5940    -0.1630 hn         1 G0E       0.508000
     50 H13          6.0650     2.6150     0.7370 h4         1 G0E       0.048800
     51 H14          9.1310    -0.8910     1.1420 h1         1 G0E       0.062033
     52 H15          7.8940    -2.0830     1.6390 h1         1 G0E       0.062033
     53 H16          8.3260    -1.9090    -0.0880 h1         1 G0E       0.062033
     54 H17          4.8080    -4.3650    -0.3060 h4         1 G0E       0.044600
     55 H18          1.2160    -6.1700    -1.2890 h5         1 G0E       0.050100
     56 H19          1.1620    -2.0500    -0.9050 h4         1 G0E       0.044600
@<TRIPOS>BOND
     1     1     2 1   
     2     2     3 1   
     3     2     4 1   
     4     2     5 1   
     5     5     6 ar  
     6     5     7 ar  
     7     6    10 ar  
     8     6    38 1   
     9     7     8 ar  
    10     7    39 1   
    11     8     9 ar  
    12     8    40 1   
    13     9    10 ar  
    14     9    41 1   
    15    10    11 1   
    16    11    12 1   
    17    11    42 1   
    18    12    13 2   
    19    12    14 1   
    20    14    15 ar  
    21    14    16 ar  
    22    15    20 ar  
    23    15    43 1   
    24    16    17 ar  
    25    16    44 1   
    26    17    18 ar  
    27    17    45 1   
    28    18    19 1   
    29    18    20 ar  
    30    19    46 1   
    31    19    47 1   
    32    19    48 1   
    33    20    21 1   
    34    21    22 1   
    35    21    49 1   
    36    22    23 ar  
    37    22    24 ar  
    38    23    31 ar  
    39    24    25 1   
    40    24    29 ar  
    41    25    26 2   
    42    25    50 1   
    43    26    27 1   
    44    27    28 1   
    45    27    29 1   
    46    28    51 1   
    47    28    52 1   
    48    28    53 1   
    49    29    30 ar  
    50    30    31 ar  
    51    31    32 1   
    52    32    33 ar  
    53    32    37 ar  
    54    33    34 ar  
    55    33    54 1   
    56    34    35 ar  
    57    35    36 ar  
    58    35    55 1   
    59    36    37 ar  
    60    37    56 1   
@<TRIPOS>SUBSTRUCTURE
     1 G0E         1 TEMP              0 ****  ****    0 ROOT
