@<TRIPOS>MOLECULE
G0E
   56    60     1     0     0
SMALL
bcc


@<TRIPOS>ATOM
      1 FAQ         -8.5390    -0.0910    -0.2040 f          1 G0E      -0.235300
      2 CAP         -7.4370     0.5910    -0.5250 c3         1 G0E       0.720200
      3 FAR         -7.2260     0.4000    -1.8350 f          1 G0E      -0.235300
      4 FAS         -7.7230     1.8920    -0.3730 f          1 G0E      -0.235300
      5 CAN         -6.2500     0.1900     0.2940 ca         1 G0E      -0.167300
      6 CAL         -5.0320     0.7900     0.0110 ca         1 G0E      -0.144000
      7 CAO         -6.3580    -0.7400     1.3180 ca         1 G0E      -0.106000
      8 CAM         -5.2230    -1.0550     2.0490 ca         1 G0E      -0.109000
      9 CAK         -3.9970    -0.4670     1.7810 ca         1 G0E      -0.120000
     10 CAJ         -3.8930     0.4690     0.7490 ca         1 G0E       0.074600
     11 NAH         -2.7160     1.1280     0.3910 ns         1 G0E      -0.468100
     12 CAG         -1.4820     1.0440     0.9530 c          1 G0E       0.691700
     13 OAI         -1.2030     0.2860     1.8650 o          1 G0E      -0.573100
     14 CAA         -0.4540     1.9500     0.3590 ca         1 G0E      -0.144600
     15 CAB          0.8790     1.5970     0.5340 ca         1 G0E      -0.070000
     16 CAC         -0.7620     3.1330    -0.3090 ca         1 G0E      -0.113000
     17 CAE          0.2570     3.9280    -0.8040 ca         1 G0E      -0.118000
     18 CAF          1.5940     3.5690    -0.6770 ca         1 G0E      -0.082300
     19 CAT          2.6760     4.4360    -1.2460 c3         1 G0E      -0.054800
     20 CAD          1.8950     2.3800     0.0020 ca         1 G0E       0.147600
     21 NAU          3.2470     2.0320     0.1610 nu         1 G0E      -0.743300
     22 C4           3.7910     0.7990     0.0910 ca         1 G0E       0.796200
     23 N3           3.0300    -0.2500    -0.1730 nb         1 G0E      -0.823000
     24 C5           5.1750     0.6040     0.2830 ca         1 G0E      -0.522500
     25 CBB          6.3460     1.3450     0.5590 cc         1 G0E       0.385800
     26 NBC          7.3830     0.5470     0.6190 nd         1 G0E      -0.515100
     27 NBD          6.9410    -0.7000     0.3970 na         1 G0E       0.014200
     28 CBK          7.8570    -1.8130     0.3790 c3         1 G0E       0.050600
     29 C6           5.6140    -0.7190     0.1840 ca         1 G0E       0.491800
     30 N1           4.8490    -1.7810    -0.0720 nb         1 G0E      -0.750000
     31 C2           3.5800    -1.4680    -0.2380 cp         1 G0E       0.805500
     32 CBE          2.6470    -2.5720    -0.5240 cp         1 G0E      -0.390100
     33 CBF          3.0700    -3.8930    -0.6290 ca         1 G0E       0.477200
     34 NBH          2.2320    -4.8880    -0.8830 nb         1 G0E      -0.708500
     35 CBJ          0.9560    -4.5650    -1.0350 ca         1 G0E       0.655900
     36 NBI          0.4390    -3.3490    -0.9570 nb         1 G0E      -0.708500
     37 CBG          1.2830    -2.3590    -0.7030 ca         1 G0E       0.477200
     38 H1          -4.9540     1.5200    -0.7870 ha         1 G0E       0.140000
     39 H2          -7.2980    -1.2180     1.5530 ha         1 G0E       0.152000
     40 H3          -5.2900    -1.7790     2.8500 ha         1 G0E       0.141000
     41 H4          -3.1390    -0.7420     2.3710 ha         1 G0E       0.173000
     42 H5          -2.8040     1.7270    -0.4140 hn         1 G0E       0.322500
     43 H6           1.1230     0.7020     1.0850 ha         1 G0E       0.177000
     44 H7          -1.7840     3.4700    -0.4300 ha         1 G0E       0.134000
     45 H8           0.0080     4.8510    -1.3110 ha         1 G0E       0.138000
     46 H9           3.2990     4.8760    -0.4630 hc         1 G0E       0.048367
     47 H10          3.3370     3.8740    -1.9070 hc         1 G0E       0.048367
     48 H11          2.2510     5.2590    -1.8170 hc         1 G0E       0.048367
     49 H12          3.8930     2.7940     0.2950 hn         1 G0E       0.452800
     50 H13          6.4650     2.4070     0.7120 h4         1 G0E       0.048800
     51 H14          8.4370    -1.8340     1.2980 h1         1 G0E       0.062033
     52 H15          7.2840    -2.7330     0.3010 h1         1 G0E       0.062033
     53 H16          8.5310    -1.7420    -0.4730 h1         1 G0E       0.062033
     54 H17          4.1160    -4.1470    -0.5020 h4         1 G0E       0.044600
     55 H18          0.2680    -5.3770    -1.2440 h5         1 G0E       0.050100
     56 H19          0.8730    -1.3590    -0.6390 h4         1 G0E       0.044600
@<TRIPOS>BOND
     1     1     2 1   
     2     2     3 1   
     3     2     4 1   
     4     2     5 1   
     5     5     6 ar  
     6     5     7 ar  
     7     6    10 ar  
     8     6    38 1   
     9     7     8 ar  
    10     7    39 1   
    11     8     9 ar  
    12     8    40 1   
    13     9    10 ar  
    14     9    41 1   
    15    10    11 1   
    16    11    12 1   
    17    11    42 1   
    18    12    13 2   
    19    12    14 1   
    20    14    15 ar  
    21    14    16 ar  
    22    15    20 ar  
    23    15    43 1   
    24    16    17 ar  
    25    16    44 1   
    26    17    18 ar  
    27    17    45 1   
    28    18    19 1   
    29    18    20 ar  
    30    19    46 1   
    31    19    47 1   
    32    19    48 1   
    33    20    21 1   
    34    21    22 1   
    35    21    49 1   
    36    22    23 ar  
    37    22    24 ar  
    38    23    31 ar  
    39    24    25 1   
    40    24    29 ar  
    41    25    26 2   
    42    25    50 1   
    43    26    27 1   
    44    27    28 1   
    45    27    29 1   
    46    28    51 1   
    47    28    52 1   
    48    28    53 1   
    49    29    30 ar  
    50    30    31 ar  
    51    31    32 1   
    52    32    33 ar  
    53    32    37 ar  
    54    33    34 ar  
    55    33    54 1   
    56    34    35 ar  
    57    35    36 ar  
    58    35    55 1   
    59    36    37 ar  
    60    37    56 1   
@<TRIPOS>SUBSTRUCTURE
     1 G0E         1 TEMP              0 ****  ****    0 ROOT
