@<TRIPOS>MOLECULE
G0F
   40    40     1     0     0
SMALL
bcc


@<TRIPOS>ATOM
      1 C4          27.7800   -13.1450    -4.2500 ca         1 G0F      -0.047300
      2 C5          28.4420   -12.0480    -3.6930 ca         1 G0F      -0.089600
      3 C6          29.6380   -12.2800    -3.0300 ca         1 G0F       0.348200
      4 N1          30.1990   -13.4750    -2.9000 nb         1 G0F      -0.679000
      5 C3          28.3740   -14.3980    -4.1040 ca         1 G0F       0.001800
      6 OP1         25.4420    -9.3130    -4.9200 o          1 G0F      -0.919833
      7 P           25.7280    -9.1740    -3.4200 p5         1 G0F       1.266900
      8 OP2         24.5320    -9.4310    -2.5150 o          1 G0F      -0.919833
      9 OP3         26.5790    -7.9580    -3.0720 o          1 G0F      -0.919833
     10 OP4         26.7270   -10.5220    -3.0450 os         1 G0F      -0.553200
     11 C5A         27.9030   -10.6460    -3.7900 c3         1 G0F       0.243700
     12 C2          29.5920   -14.5300    -3.4240 ca         1 G0F       0.279600
     13 C2A         30.2470   -15.8720    -3.2720 c3         1 G0F      -0.128400
     14 O3          27.7360   -15.4590    -4.6430 oh         1 G0F      -0.510100
     15 C4A         26.4810   -13.0190    -5.0030 c3         1 G0F       0.189100
     16 N           26.6680   -13.1810    -6.4390 n7         1 G0F      -0.790200
     17 CA          25.4020   -13.1240    -7.1580 c3         1 G0F       0.171800
     18 CB          24.9620   -11.6950    -7.4520 c3         1 G0F      -0.096400
     19 CG          23.5350   -11.6220    -7.9770 c3         1 G0F       0.053700
     20 SD          22.2600   -11.9940    -6.7340 ss         1 G0F      -0.459200
     21 CE          22.2060   -10.4310    -5.8240 c3         1 G0F       0.016000
     22 H1          30.1720   -11.4480    -2.5820 h4         1 G0F       0.016100
     23 H4          28.6830    -9.9540    -3.4380 h1         1 G0F       0.018700
     24 H5          27.7370   -10.4070    -4.8490 h1         1 G0F       0.018700
     25 H6          31.1780   -15.7670    -2.7210 hc         1 G0F       0.026033
     26 H7          29.6180   -16.5800    -2.7260 hc         1 G0F       0.026033
     27 H8          30.4850   -16.3250    -4.2380 hc         1 G0F       0.026033
     28 H9          28.2250   -16.2760    -4.4990 ho         1 G0F       0.402000
     29 H10         26.0520   -12.0370    -4.8160 h1         1 G0F       0.081200
     30 H11         24.6020   -13.6470    -6.6120 h1         1 G0F       0.007700
     31 H12         25.5240   -13.6540    -8.1060 h1         1 G0F       0.007700
     32 H13         25.6290   -11.2700    -8.2090 hc         1 G0F       0.095700
     33 H14         25.0630   -11.0600    -6.5700 hc         1 G0F       0.095700
     34 H15         23.3810   -12.3440    -8.7820 h1         1 G0F       0.037200
     35 H16         23.3190   -10.6360    -8.3930 h1         1 G0F       0.037200
     36 H17         21.5060   -10.5630    -5.0000 h1         1 G0F       0.081033
     37 H18         23.1790   -10.1590    -5.4180 h1         1 G0F       0.081033
     38 H19         21.8410    -9.6250    -6.4610 h1         1 G0F       0.081033
     39 H20         25.7610   -13.7460    -4.5950 h1         1 G0F       0.081200
     40 H21         27.0840   -14.0880    -6.6110 hn         1 G0F       0.323800
@<TRIPOS>BOND
     1     1     2 ar  
     2     1     5 ar  
     3     1    15 1   
     4     2     3 ar  
     5     2    11 1   
     6     3     4 ar  
     7     3    22 1   
     8     4    12 ar  
     9     5    12 ar  
    10     5    14 1   
    11     6     7 1   
    12     7     8 1   
    13     7     9 1   
    14     7    10 1   
    15    10    11 1   
    16    11    23 1   
    17    11    24 1   
    18    12    13 1   
    19    13    25 1   
    20    13    26 1   
    21    13    27 1   
    22    14    28 1   
    23    15    16 1   
    24    15    29 1   
    25    15    39 1   
    26    16    17 1   
    27    16    40 1   
    28    17    18 1   
    29    17    30 1   
    30    17    31 1   
    31    18    19 1   
    32    18    32 1   
    33    18    33 1   
    34    19    20 1   
    35    19    34 1   
    36    19    35 1   
    37    20    21 1   
    38    21    36 1   
    39    21    37 1   
    40    21    38 1   
@<TRIPOS>SUBSTRUCTURE
     1 G0F         1 TEMP              0 ****  ****    0 ROOT
