@<TRIPOS>MOLECULE
G0F
   40    40     1     0     0
SMALL
No Charge or Current Charge


@<TRIPOS>ATOM
      1 C4          27.7380   -13.1990    -4.2730 ca         1 G0F      -0.047300
      2 C5          28.5120   -12.0720    -3.8980 ca         1 G0F      -0.024300
      3 C6          29.7380   -12.2830    -3.2380 ca         1 G0F       0.282900
      4 N1          30.2310   -13.5070    -2.9400 nb         1 G0F      -0.679000
      5 C3          28.2480   -14.4840    -3.9650 ca         1 G0F       0.067100
      6 OP1         26.0710    -8.2920    -4.3390 o          1 G0F      -0.919833
      7 P           26.7760    -8.6570    -3.0810 p5         1 G0F       1.266900
      8 OP2         25.8620    -8.4540    -1.9250 o          1 G0F      -0.919833
      9 OP3         27.9850    -7.8080    -2.9050 o          1 G0F      -0.919833
     10 OP4         27.2070   -10.2040    -3.1290 os         1 G0F      -0.576400
     11 C5A         28.0760   -10.6380    -4.1790 c3         1 G0F       0.266900
     12 C2          29.4990   -14.5860    -3.2980 ca         1 G0F       0.214300
     13 C2A         30.1020   -15.9400    -2.9400 c3         1 G0F      -0.128400
     14 O3          27.5410   -15.6120    -4.3130 oh         1 G0F      -0.549100
     15 C4A         26.3970   -13.0370    -4.9920 c3         1 G0F       0.189100
     16 N           26.6050   -12.9490    -6.4580 n7         1 G0F      -0.845400
     17 CA          25.3860   -12.8350    -7.2800 c3         1 G0F       0.171800
     18 CB          24.7340   -11.4430    -7.1390 c3         1 G0F      -0.096400
     19 CG          23.5670   -11.2070    -8.1210 c3         1 G0F       0.101600
     20 SD          22.1470   -12.3650    -7.8200 ss         1 G0F      -0.555000
     21 CE          21.4310   -11.6320    -6.2690 c3         1 G0F       0.063900
     22 H1          30.3540   -11.4360    -2.9350 h4         1 G0F       0.016100
     23 H4          28.9670    -9.9980    -4.2360 h1         1 G0F       0.018700
     24 H5          27.5720   -10.5820    -5.1520 h1         1 G0F       0.018700
     25 H6          31.0670   -15.8410    -2.4270 hc         1 G0F       0.026033
     26 H7          29.4370   -16.5030    -2.2740 hc         1 G0F       0.026033
     27 H8          30.2720   -16.5440    -3.8390 hc         1 G0F       0.026033
     28 H9          28.0460   -16.4020    -4.0250 ho         1 G0F       0.441000
     29 H10         25.8890   -12.1420    -4.6060 h1         1 G0F       0.081200
     30 H11         24.6670   -13.6190    -7.0060 h1         1 G0F       0.007700
     31 H12         25.6530   -12.9850    -8.3340 h1         1 G0F       0.007700
     32 H13         25.4980   -10.6790    -7.3250 hc         1 G0F       0.095700
     33 H14         24.3830   -11.2930    -6.1140 hc         1 G0F       0.095700
     34 H15         23.9250   -11.3480    -9.1490 h1         1 G0F       0.037200
     35 H16         23.2090   -10.1730    -8.0260 h1         1 G0F       0.037200
     36 H17         20.5180   -12.1730    -5.9880 h1         1 G0F       0.081033
     37 H18         22.1500   -11.7070    -5.4430 h1         1 G0F       0.081033
     38 H19         21.1800   -10.5760    -6.4300 h1         1 G0F       0.081033
     39 H20         25.7440   -13.8850    -4.7430 h1         1 G0F       0.081200
     40 H21         27.0850   -13.8120    -6.7370 hn         1 G0F       0.379000
@<TRIPOS>BOND
     1     1     2 ar  
     2     1     5 ar  
     3     1    15 1   
     4     2     3 ar  
     5     2    11 1   
     6     3     4 ar  
     7     3    22 1   
     8     4    12 ar  
     9     5    12 ar  
    10     5    14 1   
    11     6     7 1   
    12     7     8 1   
    13     7     9 1   
    14     7    10 1   
    15    10    11 1   
    16    11    23 1   
    17    11    24 1   
    18    12    13 1   
    19    13    25 1   
    20    13    26 1   
    21    13    27 1   
    22    14    28 1   
    23    15    16 1   
    24    15    29 1   
    25    15    39 1   
    26    16    17 1   
    27    16    40 1   
    28    17    18 1   
    29    17    30 1   
    30    17    31 1   
    31    18    19 1   
    32    18    32 1   
    33    18    33 1   
    34    19    20 1   
    35    19    34 1   
    36    19    35 1   
    37    20    21 1   
    38    21    36 1   
    39    21    37 1   
    40    21    38 1   
@<TRIPOS>SUBSTRUCTURE
     1 G0F         1 TEMP              0 ****  ****    0 ROOT
