@<TRIPOS>MOLECULE
G0G
   70    74     1     0     0
SMALL
bcc


@<TRIPOS>ATOM
      1 O10         -1.1880    -0.5520    -2.7040 o          1 G0G      -0.615550
      2 S8          -2.0980     0.1680    -1.8280 sy         1 G0G       1.328700
      3 N28         -1.3370     0.4520    -0.4010 n3         1 G0G      -0.780000
      4 C7          -1.8780     1.4840     0.4900 c3         1 G0G       0.273100
      5 C12         -2.2240     0.9630     1.8620 ca         1 G0G      -0.114300
      6 C13         -3.2360     0.0250     2.0500 ca         1 G0G      -0.117000
      7 C29         -3.5380    -0.4460     3.3190 ca         1 G0G      -0.127500
      8 C31         -2.8290     0.0160     4.4220 ca         1 G0G      -0.124500
      9 C30         -1.8190     0.9500     4.2460 ca         1 G0G      -0.127500
     10 C14         -1.5190     1.4160     2.9710 ca         1 G0G      -0.117000
     11 C23         -0.2470    -0.3610     0.1510 c5         1 G0G       0.227000
     12 C21         -0.5950    -1.8120     0.5020 c5         1 G0G       0.134800
     13 N22         -0.0230    -2.5760    -0.5920 n7         1 G0G      -0.800200
     14 C25          1.2890    -1.9990    -0.8180 c5         1 G0G       0.134800
     15 C24          1.0220    -0.4850    -0.7360 c5         1 G0G       0.227000
     16 N32          2.1550     0.3530    -0.3470 n3         1 G0G      -0.780000
     17 S9           3.0920     0.0280     0.9590 sy         1 G0G       1.328700
     18 O11          2.2740    -0.6440     1.9570 o          1 G0G      -0.615550
     19 C27          4.3480    -1.1130     0.4300 ca         1 G0G      -0.284500
     20 C18          5.2410    -0.7100    -0.5570 ca         1 G0G      -0.034000
     21 C2           6.2380    -1.5840    -0.9600 ca         1 G0G      -0.150750
     22 C6           6.3460    -2.8390    -0.3730 ca         1 G0G      -0.077000
     23 C5           5.4570    -3.2240     0.6200 ca         1 G0G      -0.150750
     24 C20          4.4500    -2.3590     1.0290 ca         1 G0G      -0.034000
     25 O40          3.7870     1.2570     1.3170 o          1 G0G      -0.615550
     26 C33          2.4160     1.5380    -1.1670 c3         1 G0G       0.273100
     27 C34          1.4140     2.6460    -0.9540 ca         1 G0G      -0.114300
     28 C35          0.4660     2.9300    -1.9290 ca         1 G0G      -0.117000
     29 C36         -0.4400     3.9700    -1.7590 ca         1 G0G      -0.127500
     30 C37         -0.4030     4.7390    -0.6060 ca         1 G0G      -0.124500
     31 C39          0.5330     4.4540     0.3830 ca         1 G0G      -0.127500
     32 C38          1.4300     3.4110     0.2130 ca         1 G0G      -0.117000
     33 O41         -2.6560     1.4330    -2.2820 o          1 G0G      -0.615550
     34 C26         -3.4790    -0.9050    -1.5110 ca         1 G0G      -0.284500
     35 C19         -3.2790    -2.2800    -1.4930 ca         1 G0G      -0.034000
     36 C3          -4.3540    -3.1110    -1.2180 ca         1 G0G      -0.150750
     37 C4          -5.6110    -2.5730    -0.9720 ca         1 G0G      -0.077000
     38 C1          -5.8000    -1.1980    -1.0040 ca         1 G0G      -0.150750
     39 C17         -4.7330    -0.3540    -1.2800 ca         1 G0G      -0.034000
     40 H71         -1.1370     2.2810     0.5740 h1         1 G0G       0.067200
     41 H72         -2.7570     1.9390     0.0350 h1         1 G0G       0.067200
     42 H13         -3.7990    -0.3430     1.2000 ha         1 G0G       0.137250
     43 H29         -4.3300    -1.1720     3.4470 ha         1 G0G       0.135500
     44 H31         -3.0640    -0.3520     5.4120 ha         1 G0G       0.131500
     45 H30         -1.2570     1.3120     5.0970 ha         1 G0G       0.135500
     46 H14         -0.7230     2.1420     2.8410 ha         1 G0G       0.137250
     47 H23          0.0250     0.1610     1.0650 h1         1 G0G       0.093200
     48 H211        -0.1440    -2.0510     1.4740 h1         1 G0G       0.052700
     49 H212        -1.6680    -1.9760     0.5950 h1         1 G0G       0.052700
     50 HN22         0.0430    -3.5590    -0.3670 hn         1 G0G       0.362800
     51 H251         2.0170    -2.3220    -0.0680 h1         1 G0G       0.052700
     52 H252         1.6870    -2.2750    -1.7960 h1         1 G0G       0.052700
     53 H24          0.7790    -0.1490    -1.7380 h1         1 G0G       0.093200
     54 H18          5.1710     0.2680    -1.0160 ha         1 G0G       0.155000
     55 H2           6.9330    -1.2820    -1.7320 ha         1 G0G       0.135750
     56 H6           7.1260    -3.5180    -0.6920 ha         1 G0G       0.133500
     57 H5           5.5420    -4.1990     1.0800 ha         1 G0G       0.135750
     58 H20          3.7560    -2.6650     1.8000 ha         1 G0G       0.155000
     59 H331         3.4190     1.9090    -0.9650 h1         1 G0G       0.067200
     60 H332         2.4090     1.2260    -2.2130 h1         1 G0G       0.067200
     61 H35          0.4360     2.3360    -2.8350 ha         1 G0G       0.137250
     62 H36         -1.1740     4.1740    -2.5260 ha         1 G0G       0.135500
     63 H37         -1.1040     5.5530    -0.4730 ha         1 G0G       0.131500
     64 H39          0.5630     5.0480     1.2870 ha         1 G0G       0.135500
     65 H38          2.1570     3.2000     0.9870 ha         1 G0G       0.137250
     66 H19         -2.2950    -2.6960    -1.6730 ha         1 G0G       0.155000
     67 H3          -4.2100    -4.1830    -1.2000 ha         1 G0G       0.135750
     68 H4          -6.4460    -3.2270    -0.7570 ha         1 G0G       0.133500
     69 H1          -6.7790    -0.7780    -0.8180 ha         1 G0G       0.135750
     70 H17         -4.8850     0.7160    -1.3070 ha         1 G0G       0.155000
@<TRIPOS>BOND
     1     1     2 2   
     2     2     3 1   
     3     2    33 2   
     4     2    34 1   
     5     3     4 1   
     6     3    11 1   
     7     4     5 1   
     8     4    40 1   
     9     4    41 1   
    10     5     6 ar  
    11     5    10 ar  
    12     6     7 ar  
    13     6    42 1   
    14     7     8 ar  
    15     7    43 1   
    16     8     9 ar  
    17     8    44 1   
    18     9    10 ar  
    19     9    45 1   
    20    10    46 1   
    21    11    12 1   
    22    11    15 1   
    23    11    47 1   
    24    12    13 1   
    25    12    48 1   
    26    12    49 1   
    27    13    14 1   
    28    13    50 1   
    29    14    15 1   
    30    14    51 1   
    31    14    52 1   
    32    15    16 1   
    33    15    53 1   
    34    16    17 1   
    35    16    26 1   
    36    17    18 2   
    37    17    19 1   
    38    17    25 2   
    39    19    20 ar  
    40    19    24 ar  
    41    20    21 ar  
    42    20    54 1   
    43    21    22 ar  
    44    21    55 1   
    45    22    23 ar  
    46    22    56 1   
    47    23    24 ar  
    48    23    57 1   
    49    24    58 1   
    50    26    27 1   
    51    26    59 1   
    52    26    60 1   
    53    27    28 ar  
    54    27    32 ar  
    55    28    29 ar  
    56    28    61 1   
    57    29    30 ar  
    58    29    62 1   
    59    30    31 ar  
    60    30    63 1   
    61    31    32 ar  
    62    31    64 1   
    63    32    65 1   
    64    34    35 ar  
    65    34    39 ar  
    66    35    36 ar  
    67    35    66 1   
    68    36    37 ar  
    69    36    67 1   
    70    37    38 ar  
    71    37    68 1   
    72    38    39 ar  
    73    38    69 1   
    74    39    70 1   
@<TRIPOS>SUBSTRUCTURE
     1 G0G         1 TEMP              0 ****  ****    0 ROOT
