@<TRIPOS>MOLECULE
G0G
   70    74     1     0     0
SMALL
No Charge or Current Charge


@<TRIPOS>ATOM
      1 O10         -2.4670    -2.6780    -0.0070 o          1 G0G      -0.544750
      2 S8          -2.0480    -1.6550    -0.9710 sy         1 G0G       1.187100
      3 N28         -1.2250    -0.4030    -0.1240 n3         1 G0G      -0.780000
      4 C7          -2.0900     0.4450     0.7380 c3         1 G0G       0.273100
      5 C12         -2.3020    -0.0730     2.1630 ca         1 G0G      -0.114300
      6 C13         -3.3900    -0.9130     2.4720 ca         1 G0G      -0.099000
      7 C29         -3.5830    -1.3760     3.7850 ca         1 G0G      -0.109500
      8 C31         -2.6940    -0.9960     4.8040 ca         1 G0G      -0.106500
      9 C30         -1.6170    -0.1440     4.5090 ca         1 G0G      -0.109500
     10 C14         -1.4250     0.3210     3.1970 ca         1 G0G      -0.099000
     11 C23          0.1940    -0.5440     0.4060 c5         1 G0G       0.227000
     12 C21          0.3270    -1.8660     1.2540 c5         1 G0G       0.134800
     13 N22          0.9070    -2.8780     0.3290 n7         1 G0G      -0.855400
     14 C25          1.9620    -2.0980    -0.3550 c5         1 G0G       0.134800
     15 C24          1.2610    -0.7440    -0.7530 c5         1 G0G       0.227000
     16 N32          2.2480     0.4130    -0.8150 n3         1 G0G      -0.780000
     17 S9           3.4500     0.7160     0.3750 sy         1 G0G       1.187100
     18 O11          2.8600     0.4410     1.6890 o          1 G0G      -0.544750
     19 C27          4.7400    -0.4760    -0.0210 ca         1 G0G      -0.284500
     20 C18          5.2050    -0.5840    -1.3470 ca         1 G0G      -0.016000
     21 C2           6.2090    -1.5160    -1.6640 ca         1 G0G      -0.132750
     22 C6           6.7530    -2.3370    -0.6610 ca         1 G0G      -0.059000
     23 C5           6.2930    -2.2250     0.6620 ca         1 G0G      -0.132750
     24 C20          5.2890    -1.2960     0.9860 ca         1 G0G      -0.016000
     25 O40          4.0090     2.0390     0.0760 o          1 G0G      -0.544750
     26 C33          1.7690     1.6010    -1.5710 c3         1 G0G       0.273100
     27 C34          0.6290     2.4190    -0.9480 ca         1 G0G      -0.114300
     28 C35         -0.5730     2.5820    -1.6690 ca         1 G0G      -0.099000
     29 C36         -1.6180     3.3700    -1.1570 ca         1 G0G      -0.109500
     30 C37         -1.4710     4.0140     0.0810 ca         1 G0G      -0.106500
     31 C39         -0.2760     3.8690     0.8050 ca         1 G0G      -0.109500
     32 C38          0.7700     3.0810     0.2920 ca         1 G0G      -0.099000
     33 O41         -1.2380    -1.9790    -2.1500 o          1 G0G      -0.544750
     34 C26         -3.5060    -0.8110    -1.6210 ca         1 G0G      -0.284500
     35 C19         -4.7990    -1.1540    -1.1720 ca         1 G0G      -0.016000
     36 C3          -5.9200    -0.4730    -1.6780 ca         1 G0G      -0.132750
     37 C4          -5.7580     0.5450    -2.6340 ca         1 G0G      -0.059000
     38 C1          -4.4720     0.8800    -3.0890 ca         1 G0G      -0.132750
     39 C17         -3.3480     0.2020    -2.5880 ca         1 G0G      -0.016000
     40 H71         -1.6190     1.4290     0.8320 h1         1 G0G       0.067200
     41 H72         -3.0680     0.6500     0.2860 h1         1 G0G       0.067200
     42 H13         -4.0890    -1.2100     1.6960 ha         1 G0G       0.119250
     43 H29         -4.4220    -2.0300     4.0120 ha         1 G0G       0.117500
     44 H31         -2.8430    -1.3540     5.8200 ha         1 G0G       0.113500
     45 H30         -0.9320     0.1600     5.2980 ha         1 G0G       0.117500
     46 H14         -0.5920     0.9880     2.9850 ha         1 G0G       0.119250
     47 H23          0.4590     0.3240     1.0200 h1         1 G0G       0.093200
     48 H211         1.0190    -1.6900     2.0890 h1         1 G0G       0.052700
     49 H212        -0.6200    -2.1990     1.6980 h1         1 G0G       0.052700
     50 HN22         1.3110    -3.6640     0.8540 hn         1 G0G       0.418000
     51 H251         2.7830    -1.9630     0.3530 h1         1 G0G       0.052700
     52 H252         2.3640    -2.6250    -1.2320 h1         1 G0G       0.052700
     53 H24          0.7740    -0.8610    -1.7250 h1         1 G0G       0.093200
     54 H18          4.7880     0.0460    -2.1310 ha         1 G0G       0.137000
     55 H2           6.5650    -1.6010    -2.6880 ha         1 G0G       0.117750
     56 H6           7.5300    -3.0570    -0.9090 ha         1 G0G       0.115500
     57 H5           6.7160    -2.8590     1.4380 ha         1 G0G       0.117750
     58 H20          4.9420    -1.2190     2.0160 ha         1 G0G       0.137000
     59 H331         2.5920     2.2850    -1.8160 h1         1 G0G       0.067200
     60 H332         1.4180     1.2500    -2.5510 h1         1 G0G       0.067200
     61 H35         -0.6950     2.1020    -2.6360 ha         1 G0G       0.119250
     62 H36         -2.5410     3.4830    -1.7230 ha         1 G0G       0.117500
     63 H37         -2.2780     4.6260     0.4780 ha         1 G0G       0.113500
     64 H39         -0.1570     4.3730     1.7620 ha         1 G0G       0.117500
     65 H38          1.6900     3.0040     0.8620 ha         1 G0G       0.119250
     66 H19         -4.9430    -1.9440    -0.4370 ha         1 G0G       0.137000
     67 H3          -6.9160    -0.7360    -1.3300 ha         1 G0G       0.117750
     68 H4          -6.6280     1.0700    -3.0230 ha         1 G0G       0.115500
     69 H1          -4.3450     1.6640    -3.8320 ha         1 G0G       0.117750
     70 H17         -2.3550     0.4640    -2.9480 ha         1 G0G       0.137000
@<TRIPOS>BOND
     1     1     2 2   
     2     2     3 1   
     3     2    33 2   
     4     2    34 1   
     5     3     4 1   
     6     3    11 1   
     7     4     5 1   
     8     4    40 1   
     9     4    41 1   
    10     5     6 ar  
    11     5    10 ar  
    12     6     7 ar  
    13     6    42 1   
    14     7     8 ar  
    15     7    43 1   
    16     8     9 ar  
    17     8    44 1   
    18     9    10 ar  
    19     9    45 1   
    20    10    46 1   
    21    11    12 1   
    22    11    15 1   
    23    11    47 1   
    24    12    13 1   
    25    12    48 1   
    26    12    49 1   
    27    13    14 1   
    28    13    50 1   
    29    14    15 1   
    30    14    51 1   
    31    14    52 1   
    32    15    16 1   
    33    15    53 1   
    34    16    17 1   
    35    16    26 1   
    36    17    18 2   
    37    17    19 1   
    38    17    25 2   
    39    19    20 ar  
    40    19    24 ar  
    41    20    21 ar  
    42    20    54 1   
    43    21    22 ar  
    44    21    55 1   
    45    22    23 ar  
    46    22    56 1   
    47    23    24 ar  
    48    23    57 1   
    49    24    58 1   
    50    26    27 1   
    51    26    59 1   
    52    26    60 1   
    53    27    28 ar  
    54    27    32 ar  
    55    28    29 ar  
    56    28    61 1   
    57    29    30 ar  
    58    29    62 1   
    59    30    31 ar  
    60    30    63 1   
    61    31    32 ar  
    62    31    64 1   
    63    32    65 1   
    64    34    35 ar  
    65    34    39 ar  
    66    35    36 ar  
    67    35    66 1   
    68    36    37 ar  
    69    36    67 1   
    70    37    38 ar  
    71    37    68 1   
    72    38    39 ar  
    73    38    69 1   
    74    39    70 1   
@<TRIPOS>SUBSTRUCTURE
     1 G0G         1 TEMP              0 ****  ****    0 ROOT
