@<TRIPOS>MOLECULE
G0H
   57    61     1     0     0
SMALL
abcg2


@<TRIPOS>ATOM
      1 FBI          7.5910     1.6230     0.7540 f          1 G0H      -0.114667
      2 CBH          7.1700     0.3500     0.7090 c3         1 G0H       0.355300
      3 FBJ          8.2370    -0.4010     0.4250 f          1 G0H      -0.114667
      4 FBK          6.7870     0.0330     1.9530 f          1 G0H      -0.114667
      5 CAM          6.0600     0.1720    -0.2800 ca         1 G0H      -0.166300
      6 CAL          4.8260     0.7340     0.0120 ca         1 G0H      -0.126000
      7 CAN          6.2610    -0.5120    -1.4700 ca         1 G0H      -0.089000
      8 CAO          5.2020    -0.6220    -2.3580 ca         1 G0H      -0.091000
      9 CAP          3.9620    -0.0700    -2.0830 ca         1 G0H      -0.102000
     10 CAK          3.7640     0.6190    -0.8840 ca         1 G0H      -0.016000
     11 NAJ          2.5660     1.2280    -0.5090 ns         1 G0H      -0.143000
     12 CAH          1.3450     1.1510    -1.1030 c          1 G0H       0.624700
     13 OAI          1.1090     0.4610    -2.0790 o          1 G0H      -0.571100
     14 CAE          0.2800     1.9690    -0.4520 ca         1 G0H      -0.144600
     15 CAD         -1.0350     1.5460    -0.6090 ca         1 G0H      -0.048000
     16 CAF          0.5420     3.1400     0.2530 ca         1 G0H      -0.097000
     17 CAA         -0.5050     3.8580     0.8040 ca         1 G0H      -0.100000
     18 CAB         -1.8230     3.4260     0.6990 ca         1 G0H      -0.085300
     19 CAG         -2.9350     4.2040     1.3340 c3         1 G0H      -0.054800
     20 CAC         -2.0770     2.2490    -0.0180 ca         1 G0H       0.288000
     21 NBB         -3.4100     1.8290    -0.1550 nu         1 G0H      -0.944900
     22 C6          -3.8740     0.5620    -0.0610 ca         1 G0H       0.414900
     23 N1          -3.0300    -0.4060     0.2020 nb         1 G0H      -0.278000
     24 C5          -5.2760     0.2930    -0.2340 ca         1 G0H      -0.176000
     25 CAZ         -6.2550     1.2560    -0.5360 ca         1 G0H      -0.074000
     26 CAY         -7.5710     0.8890    -0.6650 ca         1 G0H      -0.122000
     27 CAX         -7.9470    -0.4550    -0.4980 ca         1 G0H      -0.080000
     28 CAW         -7.0080    -1.4120    -0.2130 ca         1 G0H      -0.096000
     29 C4          -5.6500    -1.0590    -0.0780 ca         1 G0H       0.061000
     30 N3          -4.7440    -2.0310     0.1910 nb         1 G0H      -0.210000
     31 C2          -3.4990    -1.6600     0.3080 cp         1 G0H       0.251500
     32 CBA         -2.4900    -2.7040     0.5830 cp         1 G0H      -0.205500
     33 CBC         -2.8520    -4.0400     0.7380 ca         1 G0H      -0.031000
     34 CBD         -1.8670    -4.9780     0.9860 ca         1 G0H      -0.182000
     35 CBE         -0.5490    -4.5510     1.0710 ca         1 G0H       0.350900
     36 NBF         -0.1870    -3.2820     0.9250 nb         1 G0H      -0.677000
     37 CBG         -1.1360    -2.3870     0.6880 ca         1 G0H       0.380900
     38 H1           4.6750     1.2690     0.9430 ha         1 G0H       0.123000
     39 H2           7.2150    -0.9560    -1.7150 ha         1 G0H       0.133000
     40 H3           5.3430    -1.1530    -3.2900 ha         1 G0H       0.123000
     41 H4           3.1660    -0.1800    -2.8010 ha         1 G0H       0.153000
     42 H5           2.6080     1.7310     0.3640 hn         1 G0H       0.156000
     43 H6          -1.2430     0.6610    -1.1900 ha         1 G0H       0.158000
     44 H7           1.5490     3.5240     0.3590 ha         1 G0H       0.117000
     45 H8          -0.2940     4.7740     1.3410 ha         1 G0H       0.119000
     46 H9          -3.5940     4.6560     0.5880 hc         1 G0H       0.047033
     47 H10         -3.5540     3.5720     1.9730 hc         1 G0H       0.047033
     48 H11         -2.5410     5.0150     1.9440 hc         1 G0H       0.047033
     49 H12         -4.0950     2.5630    -0.2340 hn         1 G0H       0.504000
     50 H13         -5.9960     2.2970    -0.6820 ha         1 G0H       0.105000
     51 H14         -8.3190     1.6340    -0.8970 ha         1 G0H       0.118000
     52 H15         -8.9880    -0.7330    -0.5990 ha         1 G0H       0.119000
     53 H16         -7.2860    -2.4510    -0.0880 ha         1 G0H       0.136000
     54 H17         -3.8900    -4.3330     0.6640 ha         1 G0H       0.139000
     55 H18         -2.1100    -6.0240     1.1130 ha         1 G0H       0.124000
     56 H19          0.2450    -5.2630     1.2650 h4         1 G0H       0.018100
     57 H20         -0.8150    -1.3580     0.5740 h4         1 G0H       0.038100
@<TRIPOS>BOND
     1     1     2 1   
     2     2     3 1   
     3     2     4 1   
     4     2     5 1   
     5     5     6 ar  
     6     5     7 ar  
     7     6    10 ar  
     8     6    38 1   
     9     7     8 ar  
    10     7    39 1   
    11     8     9 ar  
    12     8    40 1   
    13     9    10 ar  
    14     9    41 1   
    15    10    11 1   
    16    11    12 1   
    17    11    42 1   
    18    12    13 2   
    19    12    14 1   
    20    14    15 ar  
    21    14    16 ar  
    22    15    20 ar  
    23    15    43 1   
    24    16    17 ar  
    25    16    44 1   
    26    17    18 ar  
    27    17    45 1   
    28    18    19 1   
    29    18    20 ar  
    30    19    46 1   
    31    19    47 1   
    32    19    48 1   
    33    20    21 1   
    34    21    22 1   
    35    21    49 1   
    36    22    23 ar  
    37    22    24 ar  
    38    23    31 ar  
    39    24    25 ar  
    40    24    29 ar  
    41    25    26 ar  
    42    25    50 1   
    43    26    27 ar  
    44    26    51 1   
    45    27    28 ar  
    46    27    52 1   
    47    28    29 ar  
    48    28    53 1   
    49    29    30 ar  
    50    30    31 ar  
    51    31    32 1   
    52    32    33 ar  
    53    32    37 ar  
    54    33    34 ar  
    55    33    54 1   
    56    34    35 ar  
    57    34    55 1   
    58    35    36 ar  
    59    35    56 1   
    60    36    37 ar  
    61    37    57 1   
@<TRIPOS>SUBSTRUCTURE
     1 G0H         1 TEMP              0 ****  ****    0 ROOT
