@<TRIPOS>MOLECULE
G0H
   57    61     1     0     0
SMALL
No Charge or Current Charge


@<TRIPOS>ATOM
      1 FBI          8.0080     2.7610    -1.4040 f          1 G0H      -0.114667
      2 CBH          7.7550     1.8610    -0.4270 c3         1 G0H       0.355300
      3 FBJ          8.8790     1.1230    -0.2700 f          1 G0H      -0.114667
      4 FBK          7.5900     2.5590     0.7200 f          1 G0H      -0.114667
      5 CAM          6.5300     1.0010    -0.7650 ca         1 G0H      -0.166300
      6 CAL          5.2300     1.4470    -0.4400 ca         1 G0H      -0.126000
      7 CAN          6.6780    -0.2360    -1.4280 ca         1 G0H      -0.089000
      8 CAO          5.5510    -1.0120    -1.7410 ca         1 G0H      -0.091000
      9 CAP          4.2630    -0.5630    -1.4040 ca         1 G0H      -0.102000
     10 CAK          4.0920     0.6770    -0.7520 ca         1 G0H      -0.016000
     11 NAJ          2.8230     1.2060    -0.3790 ns         1 G0H      -0.143000
     12 CAH          1.5220     0.7590    -0.5810 c          1 G0H       0.624700
     13 OAI          1.2510    -0.2690    -1.1920 o          1 G0H      -0.571100
     14 CAE          0.4260     1.6320     0.0050 ca         1 G0H      -0.144600
     15 CAD         -0.9250     1.2530    -0.1650 ca         1 G0H      -0.048000
     16 CAF          0.7030     2.8230     0.7180 ca         1 G0H      -0.097000
     17 CAA         -0.3440     3.6040     1.2310 ca         1 G0H      -0.100000
     18 CAB         -1.6870     3.2180     1.0590 ca         1 G0H      -0.085300
     19 CAG         -2.7930     4.0990     1.6400 c3         1 G0H      -0.054800
     20 CAC         -1.9830     2.0210     0.3660 ca         1 G0H       0.288000
     21 NBB         -3.3230     1.6380     0.1840 nu         1 G0H      -0.944900
     22 C6          -3.9720     0.4100     0.0440 ca         1 G0H       0.414900
     23 N1          -3.2580    -0.6870     0.3360 nb         1 G0H      -0.278000
     24 C5          -5.3330     0.3220    -0.3280 ca         1 G0H      -0.176000
     25 CAZ         -6.1230     1.4550    -0.6350 ca         1 G0H      -0.074000
     26 CAY         -7.4700     1.2960    -1.0000 ca         1 G0H      -0.122000
     27 CAX         -8.0360     0.0130    -1.0620 ca         1 G0H      -0.080000
     28 CAW         -7.2530    -1.1140    -0.7620 ca         1 G0H      -0.096000
     29 C4          -5.9020    -0.9730    -0.3940 ca         1 G0H       0.061000
     30 N3          -5.1560    -2.0590    -0.1080 nb         1 G0H      -0.210000
     31 C2          -3.8660    -1.8840     0.2450 cp         1 G0H       0.251500
     32 CBA         -3.0490    -3.1060     0.5550 cp         1 G0H      -0.205500
     33 CBC         -3.6000    -4.4140     0.5020 ca         1 G0H      -0.031000
     34 CBD         -2.7830    -5.5140     0.8030 ca         1 G0H      -0.182000
     35 CBE         -1.4430    -5.2990     1.1500 ca         1 G0H       0.350900
     36 NBF         -0.8910    -4.0680     1.2090 nb         1 G0H      -0.677000
     37 CBG         -1.6780    -3.0050     0.9170 ca         1 G0H       0.380900
     38 H1           5.1000     2.4060     0.0590 ha         1 G0H       0.123000
     39 H2           7.6650    -0.6010    -1.7050 ha         1 G0H       0.133000
     40 H3           5.6760    -1.9660    -2.2480 ha         1 G0H       0.123000
     41 H4           3.4190    -1.1950    -1.6590 ha         1 G0H       0.153000
     42 H5           2.8840     2.0750     0.1320 hn         1 G0H       0.156000
     43 H6          -1.1590     0.3590    -0.7330 ha         1 G0H       0.158000
     44 H7           1.7220     3.1650     0.8800 ha         1 G0H       0.117000
     45 H8          -0.1050     4.5190     1.7700 ha         1 G0H       0.119000
     46 H9          -3.4250     4.5150     0.8450 hc         1 G0H       0.047033
     47 H10         -3.4350     3.5310     2.3230 hc         1 G0H       0.047033
     48 H11         -2.3850     4.9440     2.2070 hc         1 G0H       0.047033
     49 H12         -3.9760     2.4080     0.2910 hn         1 G0H       0.504000
     50 H13         -5.7090     2.4600    -0.6030 ha         1 G0H       0.105000
     51 H14         -8.0760     2.1680    -1.2360 ha         1 G0H       0.118000
     52 H15         -9.0790    -0.1090    -1.3450 ha         1 G0H       0.119000
     53 H16         -7.6980    -2.1050    -0.8140 ha         1 G0H       0.136000
     54 H17         -4.6420    -4.5810     0.2330 ha         1 G0H       0.139000
     55 H18         -3.1800    -6.5250     0.7700 ha         1 G0H       0.124000
     56 H19         -0.7890    -6.1380     1.3890 h4         1 G0H       0.018100
     57 H20         -1.1840    -2.0360     0.9790 h4         1 G0H       0.038100
@<TRIPOS>BOND
     1     1     2 1   
     2     2     3 1   
     3     2     4 1   
     4     2     5 1   
     5     5     6 ar  
     6     5     7 ar  
     7     6    10 ar  
     8     6    38 1   
     9     7     8 ar  
    10     7    39 1   
    11     8     9 ar  
    12     8    40 1   
    13     9    10 ar  
    14     9    41 1   
    15    10    11 1   
    16    11    12 1   
    17    11    42 1   
    18    12    13 2   
    19    12    14 1   
    20    14    15 ar  
    21    14    16 ar  
    22    15    20 ar  
    23    15    43 1   
    24    16    17 ar  
    25    16    44 1   
    26    17    18 ar  
    27    17    45 1   
    28    18    19 1   
    29    18    20 ar  
    30    19    46 1   
    31    19    47 1   
    32    19    48 1   
    33    20    21 1   
    34    21    22 1   
    35    21    49 1   
    36    22    23 ar  
    37    22    24 ar  
    38    23    31 ar  
    39    24    25 ar  
    40    24    29 ar  
    41    25    26 ar  
    42    25    50 1   
    43    26    27 ar  
    44    26    51 1   
    45    27    28 ar  
    46    27    52 1   
    47    28    29 ar  
    48    28    53 1   
    49    29    30 ar  
    50    30    31 ar  
    51    31    32 1   
    52    32    33 ar  
    53    32    37 ar  
    54    33    34 ar  
    55    33    54 1   
    56    34    35 ar  
    57    34    55 1   
    58    35    36 ar  
    59    35    56 1   
    60    36    37 ar  
    61    37    57 1   
@<TRIPOS>SUBSTRUCTURE
     1 G0H         1 TEMP              0 ****  ****    0 ROOT
