@<TRIPOS>MOLECULE
G0I
   47    49     1     0     0
SMALL
No Charge or Current Charge


@<TRIPOS>ATOM
      1 C21        -43.8660    37.4890   -20.5340 c6         1 G0I       0.150300
      2 C01        -35.7860    42.6560   -20.6950 c3         1 G0I      -0.089100
      3 C03        -36.1160    40.1510   -21.0900 cc         1 G0I      -0.067300
      4 C04        -37.0520    39.4790   -20.3190 cd         1 G0I      -0.222500
      5 C06        -35.3130    38.0490   -20.6180 cd         1 G0I      -0.071300
      6 C07        -34.5410    36.7570   -20.4670 c3         1 G0I      -0.031800
      7 C08        -35.0030    39.2370   -21.2620 cc         1 G0I      -0.260600
      8 C09        -33.6830    39.4180   -21.9850 c          1 G0I       0.613700
      9 C11        -33.2860    40.7260   -22.6710 c3         1 G0I      -0.190100
     10 C12        -38.3430    39.8870   -19.7960 cd         1 G0I       0.370500
     11 C13        -38.8810    41.1500   -19.9280 cc         1 G0I      -0.274000
     12 C15        -40.2490    39.5800   -18.6970 cc         1 G0I       0.429700
     13 C16        -41.3370    38.8820   -17.8950 c3         1 G0I       0.135500
     14 C18        -43.7050    38.1080   -17.7210 c6         1 G0I       0.130300
     15 C19        -45.0850    37.9520   -18.4510 c6         1 G0I       0.150300
     16 C22        -42.4950    37.8200   -19.8460 c6         1 G0I       0.130300
     17 N05        -36.5710    38.2040   -20.0560 na         1 G0I      -0.078000
     18 N17        -42.6340    38.6570   -18.6080 n3         1 G0I      -0.745600
     19 N20        -45.0110    38.2170   -19.9180 n7         1 G0I      -0.836400
     20 N23        -39.1200    38.9900   -19.0800 nd         1 G0I      -0.675000
     21 O10        -32.8620    38.5110   -22.0440 o          1 G0I      -0.563100
     22 S14        -40.4380    41.2500   -19.1590 ss         1 G0I       0.025600
     23 H1         -43.8020    37.7360   -21.6040 h1         1 G0I       0.054450
     24 H2         -35.8920    43.6420   -21.1610 hc         1 G0I       0.034700
     25 H3         -36.3890    42.6410   -19.7800 hc         1 G0I       0.034700
     26 H4         -34.7390    42.5260   -20.3980 hc         1 G0I       0.034700
     27 H5         -37.2570    41.7270   -22.0020 hc         1 G0I       0.045200
     28 H6         -35.6850    41.6430   -22.6100 hc         1 G0I       0.045200
     29 H7         -33.5860    36.9250   -19.9560 hc         1 G0I       0.056367
     30 H8         -35.1010    36.0200   -19.8780 hc         1 G0I       0.056367
     31 H9         -34.3320    36.3040   -21.4430 hc         1 G0I       0.056367
     32 H10        -32.2360    40.7210   -22.9860 hc         1 G0I       0.056700
     33 H11        -33.9250    40.8700   -23.5480 hc         1 G0I       0.056700
     34 H12        -33.4960    41.5800   -22.0250 hc         1 G0I       0.056700
     35 H13        -38.4960    42.0400   -20.3900 h4         1 G0I       0.166000
     36 H14        -41.5130    39.4910   -16.9990 h1         1 G0I       0.060700
     37 H15        -40.9360    37.9220   -17.5430 h1         1 G0I       0.060700
     38 H16        -43.4020    37.1210   -17.3390 h1         1 G0I       0.040700
     39 H17        -43.8440    38.7550   -16.8420 h1         1 G0I       0.040700
     40 H18        -45.8120    38.6420   -17.9980 h1         1 G0I       0.054450
     41 H19        -45.4620    36.9320   -18.2790 h1         1 G0I       0.054450
     42 H20        -41.9900    36.8710   -19.6100 h1         1 G0I       0.040700
     43 H21        -37.0690    37.5030   -19.5160 hn         1 G0I       0.363000
     44 H22        -44.7810    39.2140   -20.0090 hn         1 G0I       0.414000
     45 H23        -44.0460    36.4060   -20.4640 h1         1 G0I       0.054450
     46 H24        -41.8580    38.3390   -20.5780 h1         1 G0I       0.040700
     47 C02        -36.2310    41.5460   -21.6730 c3         1 G0I      -0.012100
@<TRIPOS>BOND
     1     1    16 1   
     2     1    19 1   
     3     1    23 1   
     4     1    45 1   
     5     2    24 1   
     6     2    25 1   
     7     2    26 1   
     8     2    47 1   
     9     3     4 2   
    10     3     7 1   
    11     3    47 1   
    12     4    10 1   
    13     4    17 1   
    14     5     6 1   
    15     5     7 2   
    16     5    17 1   
    17     6    29 1   
    18     6    30 1   
    19     6    31 1   
    20     7     8 1   
    21     8     9 1   
    22     8    21 2   
    23     9    32 1   
    24     9    33 1   
    25     9    34 1   
    26    10    11 2   
    27    10    20 1   
    28    11    22 1   
    29    11    35 1   
    30    12    13 1   
    31    12    20 2   
    32    12    22 1   
    33    13    18 1   
    34    13    36 1   
    35    13    37 1   
    36    14    15 1   
    37    14    18 1   
    38    14    38 1   
    39    14    39 1   
    40    15    19 1   
    41    15    40 1   
    42    15    41 1   
    43    16    18 1   
    44    16    42 1   
    45    16    46 1   
    46    17    43 1   
    47    19    44 1   
    48    27    47 1   
    49    28    47 1   
@<TRIPOS>SUBSTRUCTURE
     1 G0I         1 TEMP              0 ****  ****    0 ROOT
