@<TRIPOS>MOLECULE
G0I
   47    49     1     0     0
SMALL
abcg2


@<TRIPOS>ATOM
      1 C21        -44.1420    38.6990   -20.4590 c6         1 G0I       0.150300
      2 C01        -36.1280    42.5840   -21.1750 c3         1 G0I      -0.089100
      3 C03        -36.0620    40.0590   -21.1260 cc         1 G0I      -0.067300
      4 C04        -36.9220    39.4050   -20.2720 cd         1 G0I      -0.222500
      5 C06        -34.9860    38.2800   -20.1800 cd         1 G0I      -0.071300
      6 C07        -34.0710    37.2000   -19.7220 c3         1 G0I      -0.031800
      7 C08        -34.8130    39.3480   -21.0670 cc         1 G0I      -0.260600
      8 C09        -33.5440    39.5830   -21.7520 c          1 G0I       0.613700
      9 C11        -33.4360    40.6780   -22.7820 c3         1 G0I      -0.190100
     10 C12        -38.3070    39.6180   -19.8950 cd         1 G0I       0.370500
     11 C13        -39.0690    40.7410   -20.0440 cc         1 G0I      -0.274000
     12 C15        -40.1880    38.8640   -19.0170 cc         1 G0I       0.429700
     13 C16        -41.1710    37.9740   -18.3290 c3         1 G0I       0.135500
     14 C18        -43.5000    37.8830   -17.7230 c6         1 G0I       0.130300
     15 C19        -44.9180    38.0100   -18.3080 c6         1 G0I       0.150300
     16 C22        -42.8910    37.9130   -20.0360 c6         1 G0I       0.130300
     17 N05        -36.2460    38.3400   -19.7320 na         1 G0I      -0.078000
     18 N17        -42.5160    38.3330   -18.6990 n3         1 G0I      -0.745600
     19 N20        -45.0140    39.0270   -19.3360 n7         1 G0I      -0.836400
     20 N23        -38.9670    38.5660   -19.3020 nd         1 G0I      -0.675000
     21 O10        -32.5640    38.8950   -21.5060 o          1 G0I      -0.563100
     22 S14        -40.6560    40.4650   -19.4540 ss         1 G0I       0.025600
     23 H1         -43.8480    39.6310   -20.9450 h1         1 G0I       0.054450
     24 H2         -36.4420    43.4470   -21.7640 hc         1 G0I       0.034700
     25 H3         -36.6450    42.6270   -20.2160 hc         1 G0I       0.034700
     26 H4         -35.0620    42.6900   -20.9710 hc         1 G0I       0.034700
     27 H5         -37.4950    41.2390   -22.1490 hc         1 G0I       0.045200
     28 H6         -35.9280    41.2840   -22.8780 hc         1 G0I       0.045200
     29 H7         -33.2130    37.6020   -19.1840 hc         1 G0I       0.056367
     30 H8         -34.5960    36.5170   -19.0550 hc         1 G0I       0.056367
     31 H9         -33.6820    36.6240   -20.5590 hc         1 G0I       0.056367
     32 H10        -32.4180    40.7270   -23.1650 hc         1 G0I       0.056700
     33 H11        -34.1120    40.4930   -23.6180 hc         1 G0I       0.056700
     34 H12        -33.6960    41.6500   -22.3630 hc         1 G0I       0.056700
     35 H13        -38.7930    41.7000   -20.4480 h4         1 G0I       0.166000
     36 H14        -41.0610    38.1140   -17.2480 h1         1 G0I       0.060700
     37 H15        -40.9150    36.9240   -18.5350 h1         1 G0I       0.060700
     38 H16        -43.3280    36.8390   -17.4160 h1         1 G0I       0.040700
     39 H17        -43.3990    38.4990   -16.8250 h1         1 G0I       0.040700
     40 H18        -45.6290    38.2210   -17.5080 h1         1 G0I       0.054450
     41 H19        -45.2260    37.0580   -18.7490 h1         1 G0I       0.054450
     42 H20        -43.0710    36.8270   -20.0810 h1         1 G0I       0.040700
     43 H21        -36.6620    37.6830   -19.0890 hn         1 G0I       0.363000
     44 H22        -44.7240    39.9140   -18.9430 hn         1 G0I       0.414000
     45 H23        -44.6950    38.1150   -21.2010 h1         1 G0I       0.054450
     46 H24        -42.0770    38.1170   -20.7350 h1         1 G0I       0.040700
     47 C02        -36.4290    41.2800   -21.9120 c3         1 G0I      -0.012100
@<TRIPOS>BOND
     1     1    16 1   
     2     1    19 1   
     3     1    23 1   
     4     1    45 1   
     5     2    24 1   
     6     2    25 1   
     7     2    26 1   
     8     2    47 1   
     9     3     4 2   
    10     3     7 1   
    11     3    47 1   
    12     4    10 1   
    13     4    17 1   
    14     5     6 1   
    15     5     7 2   
    16     5    17 1   
    17     6    29 1   
    18     6    30 1   
    19     6    31 1   
    20     7     8 1   
    21     8     9 1   
    22     8    21 2   
    23     9    32 1   
    24     9    33 1   
    25     9    34 1   
    26    10    11 2   
    27    10    20 1   
    28    11    22 1   
    29    11    35 1   
    30    12    13 1   
    31    12    20 2   
    32    12    22 1   
    33    13    18 1   
    34    13    36 1   
    35    13    37 1   
    36    14    15 1   
    37    14    18 1   
    38    14    38 1   
    39    14    39 1   
    40    15    19 1   
    41    15    40 1   
    42    15    41 1   
    43    16    18 1   
    44    16    42 1   
    45    16    46 1   
    46    17    43 1   
    47    19    44 1   
    48    27    47 1   
    49    28    47 1   
@<TRIPOS>SUBSTRUCTURE
     1 G0I         1 TEMP              0 ****  ****    0 ROOT
