@<TRIPOS>MOLECULE
G0J
   72    74     1     0     0
SMALL
bcc


@<TRIPOS>ATOM
      1 C20         -2.3180    -0.6970    -0.1720 c          1 G0J       0.662100
      2 C14         -2.3450     2.1910     0.3500 ca         1 G0J      -0.087300
      3 C16         -1.4580     3.0570     2.4270 ca         1 G0J      -0.132500
      4 C18         -3.8230     2.7400     2.1890 ca         1 G0J      -0.132500
      5 C15         -1.2620     2.5900     1.1350 ca         1 G0J      -0.110500
      6 C23         -4.5120    -1.7310     0.2150 c3         1 G0J       0.154300
      7 C13         -2.1460     1.6650    -1.0420 c3         1 G0J      -0.016100
      8 C12         -1.5390     0.2460    -1.0840 c3         1 G0J       0.108500
      9 C10          0.7420     0.5000    -1.8220 c3         1 G0J       0.158800
     10 C17         -2.7390     3.1320     2.9610 ca         1 G0J      -0.124000
     11 C25         -6.7340    -1.8420    -0.9800 ca         1 G0J      -0.084000
     12 C27         -8.4670    -0.3480    -0.3140 ca         1 G0J       0.407200
     13 C01          3.9390    -1.7560     3.2290 c3         1 G0J      -0.108100
     14 C02          4.4910    -2.2390     1.8920 c3         1 G0J       0.202800
     15 C03          5.8880    -1.6950     1.6250 c3         1 G0J      -0.108100
     16 C04          4.5160    -3.7630     1.8730 c3         1 G0J      -0.108100
     17 C06          3.2870    -0.6580     0.4700 c          1 G0J       0.772100
     18 C09          2.1960     0.5600    -1.3690 c3         1 G0J       0.121700
     19 C19         -3.6240     2.2740     0.8960 ca         1 G0J      -0.110500
     20 C24         -5.9310    -1.2870     0.0060 ca         1 G0J      -0.231600
     21 C26         -8.0260    -1.3660    -1.1460 ca         1 G0J      -0.250300
     22 C29         -6.4800    -0.2740     0.7870 ca         1 G0J       0.419200
     23 C30          3.1200     0.8010    -2.5730 c3         1 G0J      -0.055100
     24 C31          4.5720     0.8260    -2.1900 ca         1 G0J      -0.081300
     25 C32          5.1630     2.0010    -1.7310 ca         1 G0J      -0.116500
     26 C33          6.4920     2.0210    -1.3330 ca         1 G0J      -0.125500
     27 C34          7.2530     0.8600    -1.3870 ca         1 G0J      -0.126000
     28 C35          6.6750    -0.3160    -1.8430 ca         1 G0J      -0.125500
     29 C36          5.3450    -0.3300    -2.2420 ca         1 G0J      -0.116500
     30 N08          2.5490    -0.6520    -0.6660 ns         1 G0J      -0.568900
     31 N11         -0.1470     0.2680    -0.7070 n7         1 G0J      -0.807200
     32 N22         -3.6060    -0.8640    -0.5130 ns         1 G0J      -0.574900
     33 N28         -7.7130     0.1900     0.6390 nb         1 G0J      -0.665000
     34 O05          3.6040    -1.9130     0.7920 os         1 G0J      -0.458900
     35 O07          3.5780     0.3300     1.1100 o          1 G0J      -0.585000
     36 O21         -1.8100    -1.2520     0.7900 o          1 G0J      -0.588100
     37 H1          -0.6050     3.3640     3.0200 ha         1 G0J       0.129500
     38 H2          -4.8270     2.8020     2.5910 ha         1 G0J       0.129500
     39 H3          -0.2610     2.5250     0.7310 ha         1 G0J       0.134000
     40 H4          -4.2570    -1.6880     1.2750 h1         1 G0J       0.062200
     41 H5          -4.3950    -2.7710    -0.1010 h1         1 G0J       0.062200
     42 H6          -3.0960     1.6710    -1.5810 hc         1 G0J       0.046200
     43 H7          -1.4810     2.3230    -1.6070 hc         1 G0J       0.046200
     44 H8          -1.6740    -0.1300    -2.1130 h1         1 G0J       0.027700
     45 H9           0.4950     1.4590    -2.2870 h1         1 G0J       0.027200
     46 H10          0.6370    -0.2630    -2.6130 h1         1 G0J       0.027200
     47 H11         -2.8910     3.5000     3.9670 ha         1 G0J       0.128000
     48 H12         -6.3570    -2.6400    -1.6080 ha         1 G0J       0.137000
     49 H13         -9.4720     0.0450    -0.4180 h4         1 G0J       0.021100
     50 H14          2.8960    -2.0500     3.3520 hc         1 G0J       0.048811
     51 H15          4.5070    -2.2220     4.0350 hc         1 G0J       0.048811
     52 H16          4.0130    -0.6780     3.3450 hc         1 G0J       0.048811
     53 H17          5.9210    -0.6070     1.6370 hc         1 G0J       0.048811
     54 H18          6.5710    -2.0610     2.3930 hc         1 G0J       0.048811
     55 H19          6.2620    -2.0340     0.6580 hc         1 G0J       0.048811
     56 H20          4.8690    -4.1450     0.9130 hc         1 G0J       0.048811
     57 H21          5.1900    -4.1300     2.6470 hc         1 G0J       0.048811
     58 H22          3.5270    -4.1800     2.0680 hc         1 G0J       0.048811
     59 H23          2.3040     1.3850    -0.6650 h1         1 G0J       0.100700
     60 H24         -4.4780     1.9740     0.2990 ha         1 G0J       0.134000
     61 H25         -8.6810    -1.7760    -1.9020 ha         1 G0J       0.143000
     62 H26         -5.8850     0.1750     1.5770 h4         1 G0J       0.029100
     63 H27          2.9440     0.0180    -3.3180 hc         1 G0J       0.049700
     64 H28          2.8350     1.7480    -3.0380 hc         1 G0J       0.049700
     65 H29          4.5750     2.9100    -1.6850 ha         1 G0J       0.127000
     66 H30          6.9350     2.9450    -0.9840 ha         1 G0J       0.129500
     67 H31          8.2910     0.8740    -1.0780 ha         1 G0J       0.129000
     68 H32          7.2630    -1.2240    -1.8910 ha         1 G0J       0.129500
     69 H33          4.9050    -1.2530    -2.6010 ha         1 G0J       0.127000
     70 H34          2.4780    -1.5210    -1.1760 hn         1 G0J       0.312500
     71 H35          0.1050    -0.5920    -0.2390 hn         1 G0J       0.401800
     72 H37         -3.9330    -0.4730    -1.3830 hn         1 G0J       0.313500
@<TRIPOS>BOND
     1     1     8 1   
     2     1    32 1   
     3     1    36 2   
     4     2     5 ar  
     5     2     7 1   
     6     2    19 ar  
     7     3     5 ar  
     8     3    10 ar  
     9     3    37 1   
    10     4    10 ar  
    11     4    19 ar  
    12     4    38 1   
    13     5    39 1   
    14     6    20 1   
    15     6    32 1   
    16     6    40 1   
    17     6    41 1   
    18     7     8 1   
    19     7    42 1   
    20     7    43 1   
    21     8    31 1   
    22     8    44 1   
    23     9    18 1   
    24     9    31 1   
    25     9    45 1   
    26     9    46 1   
    27    10    47 1   
    28    11    20 ar  
    29    11    21 ar  
    30    11    48 1   
    31    12    21 ar  
    32    12    33 ar  
    33    12    49 1   
    34    13    14 1   
    35    13    50 1   
    36    13    51 1   
    37    13    52 1   
    38    14    15 1   
    39    14    16 1   
    40    14    34 1   
    41    15    53 1   
    42    15    54 1   
    43    15    55 1   
    44    16    56 1   
    45    16    57 1   
    46    16    58 1   
    47    17    30 1   
    48    17    34 1   
    49    17    35 2   
    50    18    23 1   
    51    18    30 1   
    52    18    59 1   
    53    19    60 1   
    54    20    22 ar  
    55    21    61 1   
    56    22    33 ar  
    57    22    62 1   
    58    23    24 1   
    59    23    63 1   
    60    23    64 1   
    61    24    25 ar  
    62    24    29 ar  
    63    25    26 ar  
    64    25    65 1   
    65    26    27 ar  
    66    26    66 1   
    67    27    28 ar  
    68    27    67 1   
    69    28    29 ar  
    70    28    68 1   
    71    29    69 1   
    72    30    70 1   
    73    31    71 1   
    74    32    72 1   
@<TRIPOS>SUBSTRUCTURE
     1 G0J         1 TEMP              0 ****  ****    0 ROOT
