@<TRIPOS>MOLECULE
G0J
   72    74     1     0     0
SMALL
No Charge or Current Charge


@<TRIPOS>ATOM
      1 C20         -2.5970    -1.3240    -1.2400 c          1 G0J       0.595100
      2 C14         -2.9100     1.6790    -1.5530 ca         1 G0J      -0.087300
      3 C16         -2.6310     3.3470     0.2100 ca         1 G0J      -0.114500
      4 C18         -4.8420     2.4660    -0.2820 ca         1 G0J      -0.114500
      5 C15         -2.0840     2.5370    -0.8000 ca         1 G0J      -0.092500
      6 C23         -3.2980    -1.7740     1.1400 c3         1 G0J       0.154300
      7 C13         -2.3200     0.7870    -2.6460 c3         1 G0J      -0.016100
      8 C12         -1.5980    -0.4800    -2.1050 c3         1 G0J       0.108500
      9 C10          0.7730     0.4360    -2.2030 c3         1 G0J       0.158800
     10 C17         -4.0110     3.3120     0.4690 ca         1 G0J      -0.106000
     11 C25         -5.6920    -0.9910     0.7770 ca         1 G0J      -0.066000
     12 C27         -6.6160     0.6600     2.2910 ca         1 G0J       0.341900
     13 C01          3.0930    -2.7840     2.8380 c3         1 G0J      -0.108100
     14 C02          4.1000    -2.7510     1.6590 c3         1 G0J       0.226000
     15 C03          5.3730    -1.9190     1.9670 c3         1 G0J      -0.108100
     16 C04          4.4950    -4.1910     1.2630 c3         1 G0J      -0.108100
     17 C06          2.9720    -0.9430     0.4170 c          1 G0J       0.656100
     18 C09          2.0730     0.5770    -1.3710 c3         1 G0J       0.121700
     19 C19         -4.2940     1.6500    -1.2870 ca         1 G0J      -0.092500
     20 C24         -4.4950    -0.9180     1.5120 ca         1 G0J      -0.166300
     21 C26         -6.7680    -0.1840     1.1780 ca         1 G0J      -0.167000
     22 C29         -4.4300    -0.0370     2.6100 ca         1 G0J       0.353900
     23 C30          3.2060     1.2730    -2.1640 c3         1 G0J      -0.055100
     24 C31          4.4930     1.4200    -1.3580 ca         1 G0J      -0.081300
     25 C32          4.6200     2.4550    -0.4100 ca         1 G0J      -0.098500
     26 C33          5.7940     2.5770     0.3540 ca         1 G0J      -0.107500
     27 C34          6.8480     1.6650     0.1760 ca         1 G0J      -0.108000
     28 C35          6.7280     0.6320    -0.7690 ca         1 G0J      -0.107500
     29 C36          5.5550     0.5100    -1.5330 ca         1 G0J      -0.098500
     30 N08          2.5250    -0.7250    -0.8540 ns         1 G0J      -0.501900
     31 N11         -0.3140    -0.1530    -1.3870 n7         1 G0J      -0.862400
     32 N22         -2.4800    -1.1280     0.1190 ns         1 G0J      -0.507900
     33 N28         -5.4680     0.7380     3.0040 nb         1 G0J      -0.665000
     34 O05          3.4540    -2.2210     0.4780 os         1 G0J      -0.482100
     35 O07          2.9400    -0.1210     1.3190 o          1 G0J      -0.536000
     36 O21         -3.3850    -2.1300    -1.7200 o          1 G0J      -0.588100
     37 H1          -1.9850     4.0030     0.7900 ha         1 G0J       0.111500
     38 H2          -5.9110     2.4390    -0.0850 ha         1 G0J       0.111500
     39 H3          -1.0140     2.5720    -0.9930 ha         1 G0J       0.116000
     40 H4          -2.6760    -1.9490     2.0280 h1         1 G0J       0.062200
     41 H5          -3.6370    -2.7540     0.7770 h1         1 G0J       0.062200
     42 H6          -3.1190     0.4560    -3.3200 hc         1 G0J       0.046200
     43 H7          -1.6390     1.3670    -3.2780 hc         1 G0J       0.046200
     44 H8          -1.3530    -1.1100    -2.9710 h1         1 G0J       0.027700
     45 H9           0.4840     1.4290    -2.5710 h1         1 G0J       0.027200
     46 H10          0.9780    -0.1970    -3.0760 h1         1 G0J       0.027200
     47 H11         -4.4350     3.9380     1.2510 ha         1 G0J       0.110000
     48 H12         -5.7840    -1.6550    -0.0810 ha         1 G0J       0.119000
     49 H13         -7.4370     1.2950     2.6220 h4         1 G0J       0.021100
     50 H14          2.1380    -3.2200     2.5220 hc         1 G0J       0.048811
     51 H15          3.4870    -3.3950     3.6590 hc         1 G0J       0.048811
     52 H16          2.9010    -1.7850     3.2430 hc         1 G0J       0.048811
     53 H17          5.1300    -0.9280     2.3640 hc         1 G0J       0.048811
     54 H18          5.9880    -2.4280     2.7190 hc         1 G0J       0.048811
     55 H19          5.9800    -1.7900     1.0640 hc         1 G0J       0.048811
     56 H20          5.1710    -4.1870     0.4000 hc         1 G0J       0.048811
     57 H21          5.0050    -4.6970     2.0920 hc         1 G0J       0.048811
     58 H22          3.6080    -4.7800     1.0000 hc         1 G0J       0.048811
     59 H23          1.8310     1.2220    -0.5150 h1         1 G0J       0.100700
     60 H24         -4.9480     0.9930    -1.8560 ha         1 G0J       0.116000
     61 H25         -7.7110    -0.2080     0.6390 ha         1 G0J       0.125000
     62 H26         -3.5170     0.0460     3.2010 h4         1 G0J       0.029100
     63 H27          3.4010     0.7040    -3.0820 hc         1 G0J       0.049700
     64 H28          2.8580     2.2610    -2.4890 hc         1 G0J       0.049700
     65 H29          3.8060     3.1600    -0.2600 ha         1 G0J       0.109000
     66 H30          5.8850     3.3760     1.0860 ha         1 G0J       0.111500
     67 H31          7.7550     1.7580     0.7690 ha         1 G0J       0.111000
     68 H32          7.5420    -0.0770    -0.9060 ha         1 G0J       0.111500
     69 H33          5.4670    -0.2980    -2.2560 ha         1 G0J       0.109000
     70 H34          2.6350    -1.4970    -1.4970 hn         1 G0J       0.312500
     71 H35          0.0630    -1.0260    -0.9910 hn         1 G0J       0.457000
     72 H37         -1.7950    -0.4340     0.3980 hn         1 G0J       0.313500
@<TRIPOS>BOND
     1     1     8 1   
     2     1    32 1   
     3     1    36 2   
     4     2     5 ar  
     5     2     7 1   
     6     2    19 ar  
     7     3     5 ar  
     8     3    10 ar  
     9     3    37 1   
    10     4    10 ar  
    11     4    19 ar  
    12     4    38 1   
    13     5    39 1   
    14     6    20 1   
    15     6    32 1   
    16     6    40 1   
    17     6    41 1   
    18     7     8 1   
    19     7    42 1   
    20     7    43 1   
    21     8    31 1   
    22     8    44 1   
    23     9    18 1   
    24     9    31 1   
    25     9    45 1   
    26     9    46 1   
    27    10    47 1   
    28    11    20 ar  
    29    11    21 ar  
    30    11    48 1   
    31    12    21 ar  
    32    12    33 ar  
    33    12    49 1   
    34    13    14 1   
    35    13    50 1   
    36    13    51 1   
    37    13    52 1   
    38    14    15 1   
    39    14    16 1   
    40    14    34 1   
    41    15    53 1   
    42    15    54 1   
    43    15    55 1   
    44    16    56 1   
    45    16    57 1   
    46    16    58 1   
    47    17    30 1   
    48    17    34 1   
    49    17    35 2   
    50    18    23 1   
    51    18    30 1   
    52    18    59 1   
    53    19    60 1   
    54    20    22 ar  
    55    21    61 1   
    56    22    33 ar  
    57    22    62 1   
    58    23    24 1   
    59    23    63 1   
    60    23    64 1   
    61    24    25 ar  
    62    24    29 ar  
    63    25    26 ar  
    64    25    65 1   
    65    26    27 ar  
    66    26    66 1   
    67    27    28 ar  
    68    27    67 1   
    69    28    29 ar  
    70    28    68 1   
    71    29    69 1   
    72    30    70 1   
    73    31    71 1   
    74    32    72 1   
@<TRIPOS>SUBSTRUCTURE
     1 G0J         1 TEMP              0 ****  ****    0 ROOT
