@<TRIPOS>MOLECULE
G0K
   56    60     1     0     0
SMALL
No Charge or Current Charge


@<TRIPOS>ATOM
      1 FBI         -8.8750     1.1130     0.2860 f          1 G0K      -0.114000
      2 CBB         -7.7510     1.8510     0.4450 c3         1 G0K       0.356300
      3 FBJ         -7.5870     2.5520    -0.7000 f          1 G0K      -0.114000
      4 FBK         -8.0040     2.7480     1.4250 f          1 G0K      -0.114000
      5 CAX         -6.5260     0.9900     0.7800 ca         1 G0K      -0.167300
      6 CAZ         -5.2260     1.4390     0.4570 ca         1 G0K      -0.123000
      7 CAW         -6.6730    -0.2500     1.4360 ca         1 G0K      -0.087000
      8 CAY         -5.5460    -1.0270     1.7450 ca         1 G0K      -0.092000
      9 CBA         -4.2580    -0.5750     1.4120 ca         1 G0K      -0.097000
     10 CAV         -4.0870     0.6690     0.7660 ca         1 G0K      -0.019000
     11 NAU         -2.8190     1.2010     0.3980 ns         1 G0K      -0.144000
     12 CAT         -1.5180     0.7560     0.5990 c          1 G0K       0.623700
     13 OBC         -1.2450    -0.2750     1.2050 o          1 G0K      -0.570100
     14 CAO         -0.4220     1.6320     0.0180 ca         1 G0K      -0.142600
     15 CAP          0.9300     1.2540     0.1870 ca         1 G0K      -0.048000
     16 CAQ         -0.7000     2.8260    -0.6900 ca         1 G0K      -0.094000
     17 CAR          0.3460     3.6110    -1.2000 ca         1 G0K      -0.101000
     18 CAS          1.6900     3.2250    -1.0280 ca         1 G0K      -0.083300
     19 CBD          2.7950     4.1100    -1.6040 c3         1 G0K      -0.054800
     20 CAN          1.9860     2.0260    -0.3390 ca         1 G0K       0.284000
     21 NAM          3.3270     1.6430    -0.1570 nu         1 G0K      -0.941900
     22 C6           3.9740     0.4160    -0.0210 ca         1 G0K       0.424900
     23 N1           3.2660    -0.6760    -0.3320 nb         1 G0K      -0.279000
     24 C5           5.3280     0.3270     0.3670 ca         1 G0K      -0.234000
     25 CBG          6.1020     1.4640     0.6960 ca         1 G0K      -0.030000
     26 CBE          7.4380     1.2750     1.0720 ca         1 G0K      -0.189000
     27 CBF          7.9490    -0.0290     1.1080 ca         1 G0K       0.124900
     28 NBH          7.2120    -1.1130     0.7990 nb         1 G0K      -0.121000
     29 C4           5.9190    -0.9650     0.4320 ca         1 G0K       0.111000
     30 N3           5.1640    -2.0400     0.1210 nb         1 G0K      -0.191000
     31 C2           3.8790    -1.8680    -0.2450 cp         1 G0K       0.266500
     32 CAA          3.0720    -3.0910    -0.5750 cp         1 G0K      -0.212500
     33 CAC          3.6290    -4.3970    -0.5270 ca         1 G0K      -0.025000
     34 CAE          2.8220    -5.4990    -0.8480 ca         1 G0K      -0.182000
     35 CAF          1.4840    -5.2870    -1.2090 ca         1 G0K       0.352900
     36 NAD          0.9270    -4.0580    -1.2630 nb         1 G0K      -0.677000
     37 CAB          1.7050    -2.9940    -0.9520 ca         1 G0K       0.383900
     38 H1          -5.0970     2.4010    -0.0360 ha         1 G0K       0.123000
     39 H2          -7.6600    -0.6180     1.7100 ha         1 G0K       0.133000
     40 H3          -5.6700    -1.9840     2.2470 ha         1 G0K       0.123000
     41 H4          -3.4130    -1.2070     1.6640 ha         1 G0K       0.150000
     42 H5          -2.8810     2.0730    -0.1100 hn         1 G0K       0.156000
     43 H6           1.1640     0.3580     0.7520 ha         1 G0K       0.159000
     44 H7          -1.7190     3.1670    -0.8520 ha         1 G0K       0.116000
     45 H8           0.1070     4.5280    -1.7350 ha         1 G0K       0.120000
     46 H9           3.4250     4.5250    -0.8080 hc         1 G0K       0.047367
     47 H10          3.4390     3.5450    -2.2880 hc         1 G0K       0.047367
     48 H11          2.3870     4.9560    -2.1690 hc         1 G0K       0.047367
     49 H12          3.9800     2.4130    -0.2650 hn         1 G0K       0.503000
     50 H13          5.6930     2.4710     0.6740 ha         1 G0K       0.111000
     51 H14          8.0680     2.1220     1.3330 ha         1 G0K       0.130000
     52 H15          8.9830    -0.2140     1.3960 h4         1 G0K       0.026100
     53 H16          4.6690    -4.5620    -0.2480 ha         1 G0K       0.145000
     54 H17          3.2230    -6.5080    -0.8200 ha         1 G0K       0.126000
     55 H18          0.8370    -6.1260    -1.4630 h4         1 G0K       0.018100
     56 H19          1.2060    -2.0270    -1.0110 h4         1 G0K       0.038100
@<TRIPOS>BOND
     1     1     2 1   
     2     2     3 1   
     3     2     4 1   
     4     2     5 1   
     5     5     6 ar  
     6     5     7 ar  
     7     6    10 ar  
     8     6    38 1   
     9     7     8 ar  
    10     7    39 1   
    11     8     9 ar  
    12     8    40 1   
    13     9    10 ar  
    14     9    41 1   
    15    10    11 1   
    16    11    12 1   
    17    11    42 1   
    18    12    13 2   
    19    12    14 1   
    20    14    15 ar  
    21    14    16 ar  
    22    15    20 ar  
    23    15    43 1   
    24    16    17 ar  
    25    16    44 1   
    26    17    18 ar  
    27    17    45 1   
    28    18    19 1   
    29    18    20 ar  
    30    19    46 1   
    31    19    47 1   
    32    19    48 1   
    33    20    21 1   
    34    21    22 1   
    35    21    49 1   
    36    22    23 ar  
    37    22    24 ar  
    38    23    31 ar  
    39    24    25 ar  
    40    24    29 ar  
    41    25    26 ar  
    42    25    50 1   
    43    26    27 ar  
    44    26    51 1   
    45    27    28 ar  
    46    27    52 1   
    47    28    29 ar  
    48    29    30 ar  
    49    30    31 ar  
    50    31    32 1   
    51    32    33 ar  
    52    32    37 ar  
    53    33    34 ar  
    54    33    53 1   
    55    34    35 ar  
    56    34    54 1   
    57    35    36 ar  
    58    35    55 1   
    59    36    37 ar  
    60    37    56 1   
@<TRIPOS>SUBSTRUCTURE
     1 G0K         1 TEMP              0 ****  ****    0 ROOT
