@<TRIPOS>MOLECULE
G0K
   56    60     1     0     0
SMALL
abcg2


@<TRIPOS>ATOM
      1 FBI         -8.2300    -0.5080    -0.3760 f          1 G0K      -0.114000
      2 CBB         -7.2000     0.2940    -0.6580 c3         1 G0K       0.356300
      3 FBJ         -6.8060     0.0040    -1.9050 f          1 G0K      -0.114000
      4 FBK         -7.6800     1.5470    -0.6930 f          1 G0K      -0.114000
      5 CAX         -6.0810     0.1620     0.3270 ca         1 G0K      -0.167300
      6 CAZ         -4.8580     0.7370     0.0150 ca         1 G0K      -0.123000
      7 CAW         -6.2650    -0.4910     1.5370 ca         1 G0K      -0.087000
      8 CAY         -5.2030    -0.5540     2.4270 ca         1 G0K      -0.092000
      9 CBA         -3.9750     0.0160     2.1330 ca         1 G0K      -0.097000
     10 CAV         -3.7930     0.6700     0.9120 ca         1 G0K      -0.019000
     11 NAU         -2.6080     1.2990     0.5270 ns         1 G0K      -0.144000
     12 CAT         -1.3580     1.1200     1.0300 c          1 G0K       0.623700
     13 OBC         -1.0990     0.3310     1.9210 o          1 G0K      -0.570100
     14 CAO         -0.2920     1.9540     0.3980 ca         1 G0K      -0.142600
     15 CAP          1.0220     1.5320     0.5660 ca         1 G0K      -0.048000
     16 CAQ         -0.5440     3.1300    -0.3020 ca         1 G0K      -0.094000
     17 CAR          0.5100     3.8550    -0.8320 ca         1 G0K      -0.101000
     18 CAS          1.8270     3.4270    -0.7090 ca         1 G0K      -0.083300
     19 CBD          2.9490     4.2150    -1.3150 c3         1 G0K      -0.054800
     20 CAN          2.0710     2.2430    -0.0010 ca         1 G0K       0.284000
     21 NAM          3.4030     1.8230     0.1520 nu         1 G0K      -0.941900
     22 C6           3.8690     0.5600     0.0630 ca         1 G0K       0.424900
     23 N1           3.0370    -0.4120    -0.2260 nb         1 G0K      -0.279000
     24 C5           5.2650     0.2880     0.2700 ca         1 G0K      -0.234000
     25 CBG          6.2460     1.2340     0.6000 ca         1 G0K      -0.030000
     26 CBE          7.5430     0.8180     0.7510 ca         1 G0K      -0.189000
     27 CBF          7.8290    -0.5430     0.5690 ca         1 G0K       0.124900
     28 NBH          6.9320    -1.4520     0.2720 nb         1 G0K      -0.121000
     29 C4           5.6540    -1.0600     0.1210 ca         1 G0K       0.111000
     30 N3           4.7610    -2.0300    -0.1700 nb         1 G0K      -0.191000
     31 C2           3.5170    -1.6610    -0.3210 cp         1 G0K       0.266500
     32 CAA          2.5220    -2.7090    -0.6260 cp         1 G0K      -0.212500
     33 CAC          2.9060    -4.0260    -0.8660 ca         1 G0K      -0.025000
     34 CAE          1.9340    -4.9700    -1.1400 ca         1 G0K      -0.182000
     35 CAF          0.6060    -4.5670    -1.1640 ca         1 G0K       0.352900
     36 NAD          0.2220    -3.3160    -0.9370 nb         1 G0K      -0.677000
     37 CAB          1.1590    -2.4150    -0.6770 ca         1 G0K       0.383900
     38 H1          -4.7170     1.2450    -0.9330 ha         1 G0K       0.123000
     39 H2          -7.2100    -0.9460     1.7980 ha         1 G0K       0.133000
     40 H3          -5.3330    -1.0580     3.3750 ha         1 G0K       0.123000
     41 H4          -3.1780    -0.0480     2.8550 ha         1 G0K       0.150000
     42 H5          -2.6870     1.8700    -0.3000 hn         1 G0K       0.156000
     43 H6           1.2240     0.6440     1.1450 ha         1 G0K       0.159000
     44 H7          -1.5460     3.5190    -0.4260 ha         1 G0K       0.116000
     45 H8           0.3040     4.7750    -1.3650 ha         1 G0K       0.120000
     46 H9           3.6240     4.6150    -0.5540 hc         1 G0K       0.047367
     47 H10          3.5480     3.6030    -1.9920 hc         1 G0K       0.047367
     48 H11          2.5670     5.0630    -1.8790 hc         1 G0K       0.047367
     49 H12          4.0850     2.5580     0.2490 hn         1 G0K       0.503000
     50 H13          6.0070     2.2800     0.7470 ha         1 G0K       0.111000
     51 H14          8.3320     1.5110     1.0050 ha         1 G0K       0.130000
     52 H15          8.8500    -0.8910     0.6810 h4         1 G0K       0.026100
     53 H16          3.9520    -4.3010    -0.8400 ha         1 G0K       0.145000
     54 H17          2.1940    -6.0020    -1.3330 ha         1 G0K       0.126000
     55 H18         -0.1790    -5.2840    -1.3770 h4         1 G0K       0.018100
     56 H19          0.8210    -1.4020    -0.4950 h4         1 G0K       0.038100
@<TRIPOS>BOND
     1     1     2 1   
     2     2     3 1   
     3     2     4 1   
     4     2     5 1   
     5     5     6 ar  
     6     5     7 ar  
     7     6    10 ar  
     8     6    38 1   
     9     7     8 ar  
    10     7    39 1   
    11     8     9 ar  
    12     8    40 1   
    13     9    10 ar  
    14     9    41 1   
    15    10    11 1   
    16    11    12 1   
    17    11    42 1   
    18    12    13 2   
    19    12    14 1   
    20    14    15 ar  
    21    14    16 ar  
    22    15    20 ar  
    23    15    43 1   
    24    16    17 ar  
    25    16    44 1   
    26    17    18 ar  
    27    17    45 1   
    28    18    19 1   
    29    18    20 ar  
    30    19    46 1   
    31    19    47 1   
    32    19    48 1   
    33    20    21 1   
    34    21    22 1   
    35    21    49 1   
    36    22    23 ar  
    37    22    24 ar  
    38    23    31 ar  
    39    24    25 ar  
    40    24    29 ar  
    41    25    26 ar  
    42    25    50 1   
    43    26    27 ar  
    44    26    51 1   
    45    27    28 ar  
    46    27    52 1   
    47    28    29 ar  
    48    29    30 ar  
    49    30    31 ar  
    50    31    32 1   
    51    32    33 ar  
    52    32    37 ar  
    53    33    34 ar  
    54    33    53 1   
    55    34    35 ar  
    56    34    54 1   
    57    35    36 ar  
    58    35    55 1   
    59    36    37 ar  
    60    37    56 1   
@<TRIPOS>SUBSTRUCTURE
     1 G0K         1 TEMP              0 ****  ****    0 ROOT
