@<TRIPOS>MOLECULE
G0M
   71    73     1     0     0
SMALL
abcg2


@<TRIPOS>ATOM
      1 C10         -0.9840     1.0600     0.7650 c3         1 G0M       0.029600
      2 C12          1.5910     0.4910    -0.1120 c3         1 G0M      -0.024700
      3 C13          1.9020     1.7050    -0.9880 c3         1 G0M      -0.017100
      4 C14          3.3300     2.1570    -0.8420 ca         1 G0M      -0.092300
      5 C15          3.7730     2.7360     0.3470 ca         1 G0M      -0.104500
      6 C16          5.0940     3.1340     0.4940 ca         1 G0M      -0.111000
      7 C17          5.9940     2.9630    -0.5510 ca         1 G0M      -0.114000
      8 C18          5.5660     2.3840    -1.7370 ca         1 G0M      -0.111000
      9 C01         -4.8060    -3.1880    -2.0290 c3         1 G0M      -0.108433
     10 C02         -5.3510    -2.7200    -0.6850 c3         1 G0M       0.225000
     11 C03         -6.6310    -1.9070    -0.8380 c3         1 G0M      -0.108433
     12 C04         -5.6080    -3.9260     0.2120 c3         1 G0M      -0.108433
     13 C06         -3.8560    -0.8150    -0.3810 c          1 G0M       0.656100
     14 C09         -2.4760     1.0320     0.4640 c3         1 G0M       0.135700
     15 C19          4.2440     1.9790    -1.8770 ca         1 G0M      -0.104500
     16 C20          2.4810    -0.6820    -0.4820 c          1 G0M       0.622100
     17 C23          4.1070    -2.3010     0.4030 c3         1 G0M       0.150300
     18 C24          5.5440    -1.9020     0.6180 ca         1 G0M      -0.162300
     19 C25          6.4570    -2.8250     1.1190 ca         1 G0M       0.338900
     20 C27          8.1900    -1.3590     0.9930 ca         1 G0M       0.333900
     21 C28          7.3680    -0.3590     0.4980 ca         1 G0M      -0.163000
     22 C29          6.0230    -0.6360     0.3090 ca         1 G0M      -0.060000
     23 C30         -3.2320     1.9650     1.4240 c3         1 G0M      -0.054100
     24 C31         -4.7120     1.9560     1.1660 ca         1 G0M      -0.085300
     25 C32         -5.2570     2.7350     0.1480 ca         1 G0M      -0.097500
     26 C33         -6.6150     2.6920    -0.1310 ca         1 G0M      -0.107500
     27 C34         -7.4520     1.8630     0.6060 ca         1 G0M      -0.107000
     28 C35         -6.9210     1.0850     1.6240 ca         1 G0M      -0.107500
     29 C36         -5.5610     1.1320     1.9000 ca         1 G0M      -0.097500
     30 N08         -2.9830    -0.3180     0.5300 ns         1 G0M      -0.496900
     31 N22          3.1900    -1.1970     0.5340 ns         1 G0M      -0.498900
     32 N26          7.7460    -2.5720     1.3020 nb         1 G0M      -0.664000
     33 O05         -4.3520    -1.9720     0.0540 os         1 G0M      -0.478100
     34 O07         -4.1110    -0.2880    -1.4430 o          1 G0M      -0.537000
     35 O21          2.5180    -1.1000    -1.6290 o          1 G0M      -0.583100
     36 S11         -0.1230    -0.0970    -0.3390 ss         1 G0M      -0.342000
     37 H1          -0.6100     2.0720     0.6010 h1         1 G0M       0.060200
     38 H2          -0.7860     0.7910     1.8060 h1         1 G0M       0.060200
     39 H3           1.7150     0.7460     0.9440 h1         1 G0M       0.063700
     40 H4           1.6900     1.4580    -2.0280 hc         1 G0M       0.068200
     41 H5           1.2240     2.5160    -0.7110 hc         1 G0M       0.068200
     42 H6           3.0760     2.8800     1.1650 ha         1 G0M       0.116000
     43 H7           5.4220     3.5820     1.4240 ha         1 G0M       0.115000
     44 H8           7.0240     3.2780    -0.4390 ha         1 G0M       0.113000
     45 H9           6.2620     2.2440    -2.5540 ha         1 G0M       0.115000
     46 H10         -3.8420    -3.6840    -1.9080 hc         1 G0M       0.049144
     47 H11         -5.4960    -3.9130    -2.4630 hc         1 G0M       0.049144
     48 H12         -4.6900    -2.3740    -2.7400 hc         1 G0M       0.049144
     49 H13         -7.4150    -2.5470    -1.2450 hc         1 G0M       0.049144
     50 H14         -6.9730    -1.5300     0.1270 hc         1 G0M       0.049144
     51 H15         -6.5100    -1.0610    -1.5100 hc         1 G0M       0.049144
     52 H16         -4.7040    -4.5210     0.3450 hc         1 G0M       0.049144
     53 H17         -5.9690    -3.6210     1.1950 hc         1 G0M       0.049144
     54 H18         -6.3660    -4.5670    -0.2390 hc         1 G0M       0.049144
     55 H19         -2.6260     1.3810    -0.5580 h1         1 G0M       0.100700
     56 H20          3.9150     1.5240    -2.8040 ha         1 G0M       0.116000
     57 H21          3.9870    -2.7210    -0.5960 h1         1 G0M       0.070200
     58 H22          3.8330    -3.0880     1.1080 h1         1 G0M       0.070200
     59 H23          6.1190    -3.8220     1.3870 h4         1 G0M       0.016100
     60 H24          9.2470    -1.1730     1.1520 h4         1 G0M       0.018100
     61 H25          7.7720     0.6170     0.2660 ha         1 G0M       0.123000
     62 H26          5.3600     0.1320    -0.0690 ha         1 G0M       0.132000
     63 H27         -3.0270     1.6560     2.4530 hc         1 G0M       0.050700
     64 H28         -2.8340     2.9760     1.3100 hc         1 G0M       0.050700
     65 H29         -4.6090     3.3810    -0.4320 ha         1 G0M       0.109500
     66 H30         -7.0230     3.3070    -0.9240 ha         1 G0M       0.112500
     67 H31         -8.5120     1.8280     0.3890 ha         1 G0M       0.112000
     68 H32         -7.5660     0.4370     2.2050 ha         1 G0M       0.112500
     69 H33         -5.1560     0.5240     2.7000 ha         1 G0M       0.109500
     70 H34         -2.9080    -0.7980     1.4140 hn         1 G0M       0.316500
     71 H35          3.0830    -0.7910     1.4500 hn         1 G0M       0.314500
@<TRIPOS>BOND
     1     1    14 1   
     2     1    36 1   
     3     1    37 1   
     4     1    38 1   
     5     2     3 1   
     6     2    16 1   
     7     2    36 1   
     8     2    39 1   
     9     3     4 1   
    10     3    40 1   
    11     3    41 1   
    12     4     5 ar  
    13     4    15 ar  
    14     5     6 ar  
    15     5    42 1   
    16     6     7 ar  
    17     6    43 1   
    18     7     8 ar  
    19     7    44 1   
    20     8    15 ar  
    21     8    45 1   
    22     9    10 1   
    23     9    46 1   
    24     9    47 1   
    25     9    48 1   
    26    10    11 1   
    27    10    12 1   
    28    10    33 1   
    29    11    49 1   
    30    11    50 1   
    31    11    51 1   
    32    12    52 1   
    33    12    53 1   
    34    12    54 1   
    35    13    30 1   
    36    13    33 1   
    37    13    34 2   
    38    14    23 1   
    39    14    30 1   
    40    14    55 1   
    41    15    56 1   
    42    16    31 1   
    43    16    35 2   
    44    17    18 1   
    45    17    31 1   
    46    17    57 1   
    47    17    58 1   
    48    18    19 ar  
    49    18    22 ar  
    50    19    32 ar  
    51    19    59 1   
    52    20    21 ar  
    53    20    32 ar  
    54    20    60 1   
    55    21    22 ar  
    56    21    61 1   
    57    22    62 1   
    58    23    24 1   
    59    23    63 1   
    60    23    64 1   
    61    24    25 ar  
    62    24    29 ar  
    63    25    26 ar  
    64    25    65 1   
    65    26    27 ar  
    66    26    66 1   
    67    27    28 ar  
    68    27    67 1   
    69    28    29 ar  
    70    28    68 1   
    71    29    69 1   
    72    30    70 1   
    73    31    71 1   
@<TRIPOS>SUBSTRUCTURE
     1 G0M         1 TEMP              0 ****  ****    0 ROOT
