@<TRIPOS>MOLECULE
G0M
   71    73     1     0     0
SMALL
No Charge or Current Charge


@<TRIPOS>ATOM
      1 C10         -1.0870     1.3220     0.3560 c3         1 G0M       0.029600
      2 C12          1.5870     0.4560    -0.1930 c3         1 G0M      -0.024700
      3 C13          2.1450     1.8410    -0.5980 c3         1 G0M      -0.017100
      4 C14          3.5650     2.0550    -0.0860 ca         1 G0M      -0.092300
      5 C15          3.8100     2.1780     1.2960 ca         1 G0M      -0.104500
      6 C16          5.1220     2.3460     1.7720 ca         1 G0M      -0.111000
      7 C17          6.1970     2.3970     0.8690 ca         1 G0M      -0.114000
      8 C18          5.9590     2.2810    -0.5100 ca         1 G0M      -0.111000
      9 C01         -4.8940    -3.3650    -1.7900 c3         1 G0M      -0.108433
     10 C02         -5.3150    -2.8690    -0.3820 c3         1 G0M       0.225000
     11 C03         -6.6910    -2.1520    -0.3740 c3         1 G0M      -0.108433
     12 C04         -5.3340    -4.0540     0.6090 c3         1 G0M      -0.108433
     13 C06         -4.0000    -0.7840    -0.4480 c          1 G0M       0.656100
     14 C09         -2.6120     1.2270     0.1260 c3         1 G0M       0.135700
     15 C19          4.6480     2.1070    -0.9860 ca         1 G0M      -0.104500
     16 C20          2.5220    -0.6750    -0.6860 c          1 G0M       0.622100
     17 C23          4.1900    -2.3880     0.0930 c3         1 G0M       0.150300
     18 C24          5.5810    -1.7820     0.0240 ca         1 G0M      -0.162300
     19 C25          6.3800    -1.6940     1.1820 ca         1 G0M       0.338900
     20 C27          8.1130    -0.6960     0.0140 ca         1 G0M       0.333900
     21 C28          7.3880    -0.7410    -1.1880 ca         1 G0M      -0.163000
     22 C29          6.0960    -1.2920    -1.1890 ca         1 G0M      -0.060000
     23 C30         -3.3980     2.2330     1.0030 c3         1 G0M      -0.054100
     24 C31         -4.9080     2.1520     0.7960 ca         1 G0M      -0.085300
     25 C32         -5.5070     2.7890    -0.3080 ca         1 G0M      -0.097500
     26 C33         -6.8940     2.6940    -0.5150 ca         1 G0M      -0.107500
     27 C34         -7.6910     1.9610     0.3810 ca         1 G0M      -0.107000
     28 C35         -7.1000     1.3250     1.4850 ca         1 G0M      -0.107500
     29 C36         -5.7130     1.4210     1.6930 ca         1 G0M      -0.097500
     30 N08         -3.0960    -0.1410     0.3470 ns         1 G0M      -0.496900
     31 N22          3.1810    -1.3550     0.3160 ns         1 G0M      -0.498900
     32 N26          7.6260    -1.1660     1.1850 nb         1 G0M      -0.664000
     33 O05         -4.3060    -1.9780     0.1460 os         1 G0M      -0.478100
     34 O07         -4.4460    -0.3430    -1.4950 o          1 G0M      -0.537000
     35 O21          2.6700    -0.9550    -1.8690 o          1 G0M      -0.583100
     36 S11         -0.1530     0.2330    -0.8190 ss         1 G0M      -0.342000
     37 H1          -0.7650     2.3610     0.2100 h1         1 G0M       0.060200
     38 H2          -0.8490     1.0290     1.3860 h1         1 G0M       0.060200
     39 H3           1.5500     0.3990     0.9020 h1         1 G0M       0.063700
     40 H4           2.1100     1.9360    -1.6910 hc         1 G0M       0.068200
     41 H5           1.4940     2.6290    -0.2030 hc         1 G0M       0.068200
     42 H6           2.9840     2.1410     2.0040 ha         1 G0M       0.116000
     43 H7           5.3050     2.4370     2.8410 ha         1 G0M       0.115000
     44 H8           7.2120     2.5250     1.2380 ha         1 G0M       0.113000
     45 H9           6.7900     2.3190    -1.2100 ha         1 G0M       0.115000
     46 H10         -3.8490    -3.6970    -1.7890 hc         1 G0M       0.049144
     47 H11         -5.5180    -4.2130    -2.0980 hc         1 G0M       0.049144
     48 H12         -5.0110    -2.5870    -2.5510 hc         1 G0M       0.049144
     49 H13         -7.4970    -2.8710    -0.5640 hc         1 G0M       0.049144
     50 H14         -6.8790    -1.6820     0.5980 hc         1 G0M       0.049144
     51 H15         -6.7560    -1.3800    -1.1480 hc         1 G0M       0.049144
     52 H16         -4.3540    -4.5450     0.6480 hc         1 G0M       0.049144
     53 H17         -5.5850    -3.7120     1.6210 hc         1 G0M       0.049144
     54 H18         -6.0770    -4.8020     0.3090 hc         1 G0M       0.049144
     55 H19         -2.7960     1.4920    -0.9240 h1         1 G0M       0.100700
     56 H20          4.4770     2.0070    -2.0560 ha         1 G0M       0.116000
     57 H21          3.9700    -2.9300    -0.8380 h1         1 G0M       0.070200
     58 H22          4.1400    -3.1140     0.9160 h1         1 G0M       0.070200
     59 H23          6.0120    -2.0600     2.1390 h4         1 G0M       0.016100
     60 H24          9.1160    -0.2720     0.0400 h4         1 G0M       0.018100
     61 H25          7.8250    -0.3490    -2.1020 ha         1 G0M       0.123000
     62 H26          5.5120    -1.3340    -2.1060 ha         1 G0M       0.132000
     63 H27         -3.1530     2.0550     2.0570 hc         1 G0M       0.050700
     64 H28         -3.0480     3.2480     0.7790 hc         1 G0M       0.050700
     65 H29         -4.8970     3.3510    -1.0110 ha         1 G0M       0.109500
     66 H30         -7.3510     3.1850    -1.3720 ha         1 G0M       0.112500
     67 H31         -8.7640     1.8860     0.2190 ha         1 G0M       0.112000
     68 H32         -7.7150     0.7560     2.1780 ha         1 G0M       0.112500
     69 H33         -5.2630     0.9180     2.5450 ha         1 G0M       0.109500
     70 H34         -2.8110    -0.6370     1.1790 hn         1 G0M       0.316500
     71 H35          2.9990    -1.0590     1.2670 hn         1 G0M       0.314500
@<TRIPOS>BOND
     1     1    14 1   
     2     1    36 1   
     3     1    37 1   
     4     1    38 1   
     5     2     3 1   
     6     2    16 1   
     7     2    36 1   
     8     2    39 1   
     9     3     4 1   
    10     3    40 1   
    11     3    41 1   
    12     4     5 ar  
    13     4    15 ar  
    14     5     6 ar  
    15     5    42 1   
    16     6     7 ar  
    17     6    43 1   
    18     7     8 ar  
    19     7    44 1   
    20     8    15 ar  
    21     8    45 1   
    22     9    10 1   
    23     9    46 1   
    24     9    47 1   
    25     9    48 1   
    26    10    11 1   
    27    10    12 1   
    28    10    33 1   
    29    11    49 1   
    30    11    50 1   
    31    11    51 1   
    32    12    52 1   
    33    12    53 1   
    34    12    54 1   
    35    13    30 1   
    36    13    33 1   
    37    13    34 2   
    38    14    23 1   
    39    14    30 1   
    40    14    55 1   
    41    15    56 1   
    42    16    31 1   
    43    16    35 2   
    44    17    18 1   
    45    17    31 1   
    46    17    57 1   
    47    17    58 1   
    48    18    19 ar  
    49    18    22 ar  
    50    19    32 ar  
    51    19    59 1   
    52    20    21 ar  
    53    20    32 ar  
    54    20    60 1   
    55    21    22 ar  
    56    21    61 1   
    57    22    62 1   
    58    23    24 1   
    59    23    63 1   
    60    23    64 1   
    61    24    25 ar  
    62    24    29 ar  
    63    25    26 ar  
    64    25    65 1   
    65    26    27 ar  
    66    26    66 1   
    67    27    28 ar  
    68    27    67 1   
    69    28    29 ar  
    70    28    68 1   
    71    29    69 1   
    72    30    70 1   
    73    31    71 1   
@<TRIPOS>SUBSTRUCTURE
     1 G0M         1 TEMP              0 ****  ****    0 ROOT
