@<TRIPOS>MOLECULE
G0N
   59    63     1     0     0
SMALL
abcg2


@<TRIPOS>ATOM
      1 FBK         -8.9080    -0.6740    -0.4700 f          1 G0N      -0.113667
      2 CBJ         -7.8530     0.0910    -0.7610 c3         1 G0N       0.355300
      3 FBL         -7.4710    -0.2260    -2.0070 f          1 G0N      -0.113667
      4 FBM         -8.2890     1.3580    -0.8070 f          1 G0N      -0.113667
      5 CBF         -6.7330    -0.0720     0.2200 ca         1 G0N      -0.166300
      6 CBE         -5.5440     0.5990    -0.0300 ca         1 G0N      -0.125000
      7 CBG         -6.8750    -0.8580     1.3540 ca         1 G0N      -0.087000
      8 CBH         -5.8060    -0.9570     2.2310 ca         1 G0N      -0.091000
      9 CBI         -4.6110    -0.2950     1.9980 ca         1 G0N      -0.102000
     10 CBD         -4.4710     0.4940     0.8540 ca         1 G0N      -0.021000
     11 NBB         -3.3240     1.2200     0.5300 ns         1 G0N      -0.144000
     12 CBA         -2.0810     1.1320     1.0740 c          1 G0N       0.623700
     13 OBC         -1.7800     0.3410     1.9500 o          1 G0N      -0.573100
     14 CAL         -1.0750     2.0770     0.5020 ca         1 G0N      -0.146600
     15 CAK          0.2660     1.7340     0.6340 ca         1 G0N      -0.052000
     16 CAM         -1.4140     3.2810    -0.1070 ca         1 G0N      -0.094000
     17 CAN         -0.4160     4.1100    -0.5920 ca         1 G0N      -0.101000
     18 CAO          0.9280     3.7630    -0.5100 ca         1 G0N      -0.078300
     19 CAZ          1.9850     4.6660    -1.0680 c3         1 G0N      -0.056800
     20 CAJ          1.2580     2.5510     0.1110 ca         1 G0N       0.289000
     21 NAI          2.6170     2.2140     0.2200 nu         1 G0N      -0.928900
     22 CAF          3.1840     1.0040     0.0570 ca         1 G0N       0.415900
     23 NAA          2.4230    -0.0540    -0.2080 nb         1 G0N      -0.274500
     24 NAE          4.5170     0.9640     0.1680 nb         1 G0N      -0.274500
     25 CAD          5.0610    -0.2220    -0.0150 cp         1 G0N       0.259500
     26 CAH          6.5340    -0.3240     0.0790 cp         1 G0N      -0.126000
     27 CAU          7.1840    -1.5230    -0.1890 ca         1 G0N      -0.113750
     28 CAV          8.5660    -1.5660    -0.0920 ca         1 G0N       0.320900
     29 NAW          9.3100    -0.5210     0.2510 nb         1 G0N      -0.648500
     30 CAX          8.6840     0.6220     0.5090 ca         1 G0N       0.320900
     31 CAY          7.3080     0.7740     0.4360 ca         1 G0N      -0.113750
     32 NAC          4.3870    -1.3370    -0.2790 nb         1 G0N      -0.247000
     33 CAB          3.0710    -1.1940    -0.3590 cp         1 G0N       0.259500
     34 CAG          2.2620    -2.4020    -0.6290 cp         1 G0N      -0.126000
     35 CAP          2.8660    -3.6280    -0.8830 ca         1 G0N      -0.113750
     36 CAQ          2.0580    -4.7290    -1.1230 ca         1 G0N       0.320900
     37 NAR          0.7320    -4.6810    -1.1200 nb         1 G0N      -0.648500
     38 CAS          0.1590    -3.5080    -0.8740 ca         1 G0N       0.320900
     39 CAT          0.8720    -2.3460    -0.6260 ca         1 G0N      -0.113750
     40 H1          -5.4390     1.2120    -0.9180 ha         1 G0N       0.123000
     41 H2          -7.7930    -1.3890     1.5650 ha         1 G0N       0.135000
     42 H3          -5.9020    -1.5630     3.1210 ha         1 G0N       0.124000
     43 H4          -3.8070    -0.3970     2.7070 ha         1 G0N       0.152000
     44 H5          -3.4210     1.8150    -0.2770 hn         1 G0N       0.156000
     45 H6           0.5320     0.8200     1.1430 ha         1 G0N       0.158000
     46 H7          -2.4420     3.6080    -0.1900 ha         1 G0N       0.117000
     47 H8          -0.6890     5.0500    -1.0550 ha         1 G0N       0.121000
     48 H9           2.6260     5.0740    -0.2830 hc         1 G0N       0.050033
     49 H10          2.6330     4.1420    -1.7730 hc         1 G0N       0.050033
     50 H11          1.5380     5.5100    -1.5880 hc         1 G0N       0.050033
     51 H12          3.2750     2.9680     0.3500 hn         1 G0N       0.519000
     52 H13          6.6320    -2.4080    -0.4730 ha         1 G0N       0.143000
     53 H14          9.0930    -2.4900    -0.3020 h4         1 G0N       0.022850
     54 H15          9.3060     1.4640     0.7880 h4         1 G0N       0.022850
     55 H16          6.8560     1.7300     0.6590 ha         1 G0N       0.143000
     56 H17          3.9420    -3.7290    -0.8960 ha         1 G0N       0.143000
     57 H18          2.5090    -5.6940    -1.3250 h4         1 G0N       0.022850
     58 H19         -0.9240    -3.4870    -0.8720 h4         1 G0N       0.022850
     59 H20          0.3510    -1.4190    -0.4320 ha         1 G0N       0.143000
@<TRIPOS>BOND
     1     1     2 1   
     2     2     3 1   
     3     2     4 1   
     4     2     5 1   
     5     5     6 ar  
     6     5     7 ar  
     7     6    10 ar  
     8     6    40 1   
     9     7     8 ar  
    10     7    41 1   
    11     8     9 ar  
    12     8    42 1   
    13     9    10 ar  
    14     9    43 1   
    15    10    11 1   
    16    11    12 1   
    17    11    44 1   
    18    12    13 2   
    19    12    14 1   
    20    14    15 ar  
    21    14    16 ar  
    22    15    20 ar  
    23    15    45 1   
    24    16    17 ar  
    25    16    46 1   
    26    17    18 ar  
    27    17    47 1   
    28    18    19 1   
    29    18    20 ar  
    30    19    48 1   
    31    19    49 1   
    32    19    50 1   
    33    20    21 1   
    34    21    22 1   
    35    21    51 1   
    36    22    23 ar  
    37    22    24 ar  
    38    23    33 ar  
    39    24    25 ar  
    40    25    26 1   
    41    25    32 ar  
    42    26    27 ar  
    43    26    31 ar  
    44    27    28 ar  
    45    27    52 1   
    46    28    29 ar  
    47    28    53 1   
    48    29    30 ar  
    49    30    31 ar  
    50    30    54 1   
    51    31    55 1   
    52    32    33 ar  
    53    33    34 1   
    54    34    35 ar  
    55    34    39 ar  
    56    35    36 ar  
    57    35    56 1   
    58    36    37 ar  
    59    36    57 1   
    60    37    38 ar  
    61    38    39 ar  
    62    38    58 1   
    63    39    59 1   
@<TRIPOS>SUBSTRUCTURE
     1 G0N         1 TEMP              0 ****  ****    0 ROOT
