@<TRIPOS>MOLECULE
G0N
   59    63     1     0     0
SMALL
No Charge or Current Charge


@<TRIPOS>ATOM
      1 FBK         -9.5640     1.1130     1.3050 f          1 G0N      -0.113667
      2 CBJ         -8.5390     1.4980     0.5100 c3         1 G0N       0.355300
      3 FBL         -8.9600     1.3660    -0.7680 f          1 G0N      -0.113667
      4 FBM         -8.3570     2.8200     0.7320 f          1 G0N      -0.113667
      5 CBF         -7.2620     0.6850     0.7630 ca         1 G0N      -0.166300
      6 CBE         -5.9930     1.2370     0.4800 ca         1 G0N      -0.125000
      7 CBG         -7.3340    -0.6350     1.2570 ca         1 G0N      -0.087000
      8 CBH         -6.1610    -1.3750     1.4740 ca         1 G0N      -0.091000
      9 CBI         -4.9040    -0.8120     1.1990 ca         1 G0N      -0.102000
     10 CBD         -4.8100     0.5050     0.6960 ca         1 G0N      -0.021000
     11 NBB         -3.5780     1.1460     0.3840 ns         1 G0N      -0.144000
     12 CBA         -2.2520     0.7470     0.5080 c          1 G0N       0.623700
     13 OBC         -1.9150    -0.3390     0.9670 o          1 G0N      -0.573100
     14 CAL         -1.2140     1.7500     0.0340 ca         1 G0N      -0.146600
     15 CAK          0.1590     1.4320     0.1520 ca         1 G0N      -0.052000
     16 CAM         -1.5660     3.0010    -0.5240 ca         1 G0N      -0.094000
     17 CAN         -0.5720     3.8990    -0.9410 ca         1 G0N      -0.101000
     18 CAO          0.7930     3.5730    -0.8240 ca         1 G0N      -0.078300
     19 CAZ          1.8390     4.5820    -1.2990 c3         1 G0N      -0.056800
     20 CAJ          1.1660     2.3190    -0.2830 ca         1 G0N       0.289000
     21 NAI          2.5300     1.9950    -0.1600 nu         1 G0N      -0.928900
     22 CAF          3.2520     0.8120    -0.1630 ca         1 G0N       0.415900
     23 NAA          2.6200    -0.3440    -0.4120 nb         1 G0N      -0.274500
     24 NAE          4.5650     0.9350     0.0690 nb         1 G0N      -0.274500
     25 CAD          5.2730    -0.2130     0.0530 cp         1 G0N       0.259500
     26 CAH          6.7540    -0.1420     0.3090 cp         1 G0N      -0.126000
     27 CAU          7.5820    -1.2980     0.3100 ca         1 G0N      -0.113750
     28 CAV          8.9630    -1.1860     0.5540 ca         1 G0N       0.320900
     29 NAW          9.5770    -0.0050     0.7970 nb         1 G0N      -0.648500
     30 CAX          8.8090     1.1080     0.8010 ca         1 G0N       0.320900
     31 CAY          7.4230     1.0870     0.5660 ca         1 G0N      -0.113750
     32 NAC          4.7220    -1.4250    -0.1810 nb         1 G0N      -0.247000
     33 CAB          3.3910    -1.4480    -0.4080 cp         1 G0N       0.259500
     34 CAG          2.7280    -2.7790    -0.6470 cp         1 G0N      -0.126000
     35 CAP          3.4590    -3.9970    -0.6790 ca         1 G0N      -0.113750
     36 CAQ          2.7990    -5.2180    -0.9040 ca         1 G0N       0.320900
     37 NAR          1.4630    -5.3120    -1.0980 nb         1 G0N      -0.648500
     38 CAS          0.7470    -4.1650    -1.0710 ca         1 G0N       0.320900
     39 CAT          1.3260    -2.9020    -0.8530 ca         1 G0N      -0.113750
     40 H1          -5.9250     2.2490     0.0850 ha         1 G0N       0.123000
     41 H2          -8.2970    -1.0940     1.4710 ha         1 G0N       0.135000
     42 H3          -6.2270    -2.3910     1.8570 ha         1 G0N       0.124000
     43 H4          -4.0220    -1.4180     1.3770 ha         1 G0N       0.152000
     44 H5          -3.6930     2.0710    -0.0040 hn         1 G0N       0.156000
     45 H6           0.4460     0.4910     0.6080 ha         1 G0N       0.158000
     46 H7          -2.6050     3.2990    -0.6400 ha         1 G0N       0.117000
     47 H8          -0.8680     4.8570    -1.3620 ha         1 G0N       0.121000
     48 H9           2.4520     4.9390    -0.4630 hc         1 G0N       0.050033
     49 H10          2.5070     4.1390    -2.0470 hc         1 G0N       0.050033
     50 H11          1.3760     5.4620    -1.7610 hc         1 G0N       0.050033
     51 H12          3.1430     2.8080    -0.1750 hn         1 G0N       0.519000
     52 H13          7.1700    -2.2850     0.1240 ha         1 G0N       0.143000
     53 H14          9.5980    -2.0710     0.5550 h4         1 G0N       0.022850
     54 H15          9.3220     2.0490     0.9980 h4         1 G0N       0.022850
     55 H16          6.8810     2.0280     0.5880 ha         1 G0N       0.143000
     56 H17          4.5360    -4.0110    -0.5330 ha         1 G0N       0.143000
     57 H18          3.3580    -6.1530    -0.9290 h4         1 G0N       0.022850
     58 H19         -0.3270    -4.2610    -1.2280 h4         1 G0N       0.022850
     59 H20          0.6770    -2.0310    -0.8460 ha         1 G0N       0.143000
@<TRIPOS>BOND
     1     1     2 1   
     2     2     3 1   
     3     2     4 1   
     4     2     5 1   
     5     5     6 ar  
     6     5     7 ar  
     7     6    10 ar  
     8     6    40 1   
     9     7     8 ar  
    10     7    41 1   
    11     8     9 ar  
    12     8    42 1   
    13     9    10 ar  
    14     9    43 1   
    15    10    11 1   
    16    11    12 1   
    17    11    44 1   
    18    12    13 2   
    19    12    14 1   
    20    14    15 ar  
    21    14    16 ar  
    22    15    20 ar  
    23    15    45 1   
    24    16    17 ar  
    25    16    46 1   
    26    17    18 ar  
    27    17    47 1   
    28    18    19 1   
    29    18    20 ar  
    30    19    48 1   
    31    19    49 1   
    32    19    50 1   
    33    20    21 1   
    34    21    22 1   
    35    21    51 1   
    36    22    23 ar  
    37    22    24 ar  
    38    23    33 ar  
    39    24    25 ar  
    40    25    26 1   
    41    25    32 ar  
    42    26    27 ar  
    43    26    31 ar  
    44    27    28 ar  
    45    27    52 1   
    46    28    29 ar  
    47    28    53 1   
    48    29    30 ar  
    49    30    31 ar  
    50    30    54 1   
    51    31    55 1   
    52    32    33 ar  
    53    33    34 1   
    54    34    35 ar  
    55    34    39 ar  
    56    35    36 ar  
    57    35    56 1   
    58    36    37 ar  
    59    36    57 1   
    60    37    38 ar  
    61    38    39 ar  
    62    38    58 1   
    63    39    59 1   
@<TRIPOS>SUBSTRUCTURE
     1 G0N         1 TEMP              0 ****  ****    0 ROOT
