@<TRIPOS>MOLECULE
G0O
   31    32     1     0     0
SMALL
No Charge or Current Charge


@<TRIPOS>ATOM
      1 C18         10.7770   101.4700    81.7070 c3         1 G0O      -0.086100
      2 C01          7.5820    95.0020    84.0830 ca         1 G0O      -0.106000
      3 C02          6.9130    95.6410    83.0290 ca         1 G0O      -0.091000
      4 C03          7.2650    96.9480    82.6620 ca         1 G0O      -0.151000
      5 C04          8.2900    97.6300    83.3400 ca         1 G0O      -0.022000
      6 C05          8.9580    96.9820    84.4040 ca         1 G0O      -0.095000
      7 C06          8.6150    95.6620    84.7890 ca         1 G0O      -0.103500
      8 C07          9.3130    94.9830    85.9020 cc         1 G0O       0.556500
      9 N08         10.3110    95.6050    86.5950 nc         1 G0O      -0.370000
     10 N09         10.7170    94.7590    87.4980 nd         1 G0O      -0.172800
     11 N10          9.9430    93.6400    87.3200 na         1 G0O       0.109600
     12 N11          9.0330    93.7610    86.3000 nd         1 G0O      -0.520800
     13 N12          8.5860    98.9530    82.9090 ns         1 G0O      -0.140000
     14 C13          9.5680    99.8640    83.2800 c          1 G0O       0.613100
     15 O14         10.4390    99.6360    84.1130 o          1 G0O      -0.569100
     16 C15          9.4950   101.2140    82.5380 c3         1 G0O      -0.132700
     17 C16          9.2070   102.3650    83.5260 c3         1 G0O       0.091600
     18 S17          7.5760   102.1930    84.3900 sh         1 G0O      -0.465800
     19 H1          10.6910   102.4040    81.1370 hc         1 G0O       0.047700
     20 H2          11.6580   101.5460    82.3560 hc         1 G0O       0.047700
     21 H3          10.9460   100.6530    80.9940 hc         1 G0O       0.047700
     22 H5           6.1190    95.1220    82.4960 ha         1 G0O       0.116000
     23 H6           6.7370    97.4310    81.8420 ha         1 G0O       0.111000
     24 H7           9.7440    97.4980    84.9460 ha         1 G0O       0.167000
     25 H9           7.9550    99.2980    82.1970 hn         1 G0O       0.151000
     26 H10          8.6550   101.1750    81.8330 hc         1 G0O       0.061700
     27 H11         10.0030   102.4140    84.2820 h1         1 G0O       0.073200
     28 H12          9.2030   103.3190    82.9820 h1         1 G0O       0.073200
     29 H13          7.6720   103.3340    85.1190 hs         1 G0O       0.224800
     30 H8          10.0450    92.8060    87.8980 hn         1 G0O       0.405000
     31 H4           7.2910    93.9880    84.3500 ha         1 G0O       0.129000
@<TRIPOS>BOND
     1     1    16 1   
     2     1    19 1   
     3     1    20 1   
     4     1    21 1   
     5     2     3 ar  
     6     2     7 ar  
     7     2    31 1   
     8     3     4 ar  
     9     3    22 1   
    10     4     5 ar  
    11     4    23 1   
    12     5     6 ar  
    13     5    13 1   
    14     6     7 ar  
    15     6    24 1   
    16     7     8 1   
    17     8     9 1   
    18     8    12 2   
    19     9    10 2   
    20    10    11 1   
    21    11    12 1   
    22    11    30 1   
    23    13    14 1   
    24    13    25 1   
    25    14    15 2   
    26    14    16 1   
    27    16    17 1   
    28    16    26 1   
    29    17    18 1   
    30    17    27 1   
    31    17    28 1   
    32    18    29 1   
@<TRIPOS>SUBSTRUCTURE
     1 G0O         1 TEMP              0 ****  ****    0 ROOT
