@<TRIPOS>MOLECULE
G0O
   31    32     1     0     0
SMALL
bcc


@<TRIPOS>ATOM
      1 C18         10.8900   101.2900    81.9540 c3         1 G0O      -0.086100
      2 C01          7.5210    95.0940    84.1660 ca         1 G0O      -0.124000
      3 C02          6.8090    95.7350    83.1650 ca         1 G0O      -0.109000
      4 C03          7.1640    97.0050    82.7490 ca         1 G0O      -0.169000
      5 C04          8.2480    97.6650    83.3330 ca         1 G0O       0.070600
      6 C05          8.9710    97.0240    84.3380 ca         1 G0O      -0.113000
      7 C06          8.6060    95.7430    84.7470 ca         1 G0O      -0.103500
      8 C07          9.3850    95.0850    85.7940 cc         1 G0O       0.556500
      9 N08         10.4170    95.6530    86.4460 nc         1 G0O      -0.370000
     10 N09         10.8520    94.7730    87.2840 nd         1 G0O      -0.172800
     11 N10         10.1020    93.7260    87.1290 na         1 G0O       0.159900
     12 N11          9.1740    93.8540    86.2220 nd         1 G0O      -0.520800
     13 N12          8.5520    98.9400    82.8480 ns         1 G0O      -0.466100
     14 C13          9.4000    99.8700    83.3560 c          1 G0O       0.680100
     15 O14         10.0660    99.7090    84.3620 o          1 G0O      -0.569100
     16 C15          9.4870   101.1560    82.5480 c3         1 G0O      -0.132700
     17 C16          9.1710   102.3540    83.4360 c3         1 G0O       0.043700
     18 S17          7.4420   102.2480    84.0140 sh         1 G0O      -0.417900
     19 H1          10.9540   102.1940    81.3490 hc         1 G0O       0.047700
     20 H2          11.6450   101.3520    82.7380 hc         1 G0O       0.047700
     21 H3          11.1290   100.4410    81.3140 hc         1 G0O       0.047700
     22 H5           5.9640    95.2420    82.7040 ha         1 G0O       0.134000
     23 H6           6.5930    97.4920    81.9670 ha         1 G0O       0.129000
     24 H7           9.8170    97.5070    84.7970 ha         1 G0O       0.185000
     25 H9           8.0350    99.2160    82.0260 hn         1 G0O       0.317500
     26 H10          8.7690   101.1350    81.7220 hc         1 G0O       0.061700
     27 H11          9.8390   102.3730    84.2960 h1         1 G0O       0.073200
     28 H12          9.3130   103.2740    82.8700 h1         1 G0O       0.073200
     29 H13          7.5240   103.1630    84.9860 hs         1 G0O       0.224800
     30 H8          10.2340    92.8800    87.6710 hn         1 G0O       0.354700
     31 H4           7.2360    94.1010    84.4870 ha         1 G0O       0.147000
@<TRIPOS>BOND
     1     1    16 1   
     2     1    19 1   
     3     1    20 1   
     4     1    21 1   
     5     2     3 ar  
     6     2     7 ar  
     7     2    31 1   
     8     3     4 ar  
     9     3    22 1   
    10     4     5 ar  
    11     4    23 1   
    12     5     6 ar  
    13     5    13 1   
    14     6     7 ar  
    15     6    24 1   
    16     7     8 1   
    17     8     9 1   
    18     8    12 2   
    19     9    10 2   
    20    10    11 1   
    21    11    12 1   
    22    11    30 1   
    23    13    14 1   
    24    13    25 1   
    25    14    15 2   
    26    14    16 1   
    27    16    17 1   
    28    16    26 1   
    29    17    18 1   
    30    17    27 1   
    31    17    28 1   
    32    18    29 1   
@<TRIPOS>SUBSTRUCTURE
     1 G0O         1 TEMP              0 ****  ****    0 ROOT
