@<TRIPOS>MOLECULE
G0P
   69    71     1     0     0
SMALL
bcc


@<TRIPOS>ATOM
      1 C12         -6.4710     1.2510    -1.2140 c5         1 G0P       0.102000
      2 C13         -7.2680     2.4440    -1.7280 c5         1 G0P      -0.094400
      3 C14         -7.3040     3.3810    -0.5260 c5         1 G0P      -0.094400
      4 C15         -5.9160     3.2240     0.0840 c5         1 G0P       0.102000
      5 N16         -5.5440     1.8530    -0.2580 n          1 G0P      -0.478800
      6 C17         -4.4490     1.2910     0.2700 c          1 G0P       0.657100
      7 O18         -3.7030     1.9010     1.0270 o          1 G0P      -0.608100
      8 C19         -4.1880    -0.1820    -0.0620 c3         1 G0P       0.035700
      9 C20         -5.0180    -1.0830     0.8550 c3         1 G0P      -0.084400
     10 C21         -4.8970    -2.5620     0.5080 c3         1 G0P      -0.074400
     11 C22         -5.8080    -3.4370     1.3590 c3         1 G0P      -0.080400
     12 C23         -5.6820    -4.9130     1.0140 c3         1 G0P       0.149800
     13 N24         -6.5690    -5.7210     1.8390 n8         1 G0P      -0.884800
     14 N25         -2.7880    -0.4820     0.0850 ns         1 G0P      -0.546900
     15 C26         -1.8790     0.0290    -0.7690 c          1 G0P       0.687700
     16 O27         -2.2070     0.6880    -1.7470 o          1 G0P      -0.604100
     17 C28         -0.4500    -0.2620    -0.4670 ca         1 G0P      -0.177600
     18 C29          0.5250     0.5690    -1.0090 ca         1 G0P      -0.057000
     19 C30          1.8720     0.3610    -0.7630 ca         1 G0P      -0.186500
     20 C31          2.2610    -0.7040     0.0460 ca         1 G0P       0.160100
     21 C32          1.2980    -1.5650     0.5690 ca         1 G0P      -0.186500
     22 C33         -0.0410    -1.3440     0.3120 ca         1 G0P      -0.057000
     23 O34          3.5460    -0.9860     0.3660 os         1 G0P      -0.319900
     24 C35          4.5140     0.0110     0.2620 c6         1 G0P       0.321900
     25 O36          4.9510     0.0510    -1.0620 os         1 G0P      -0.400600
     26 C37          5.9230     1.0590    -1.2800 c6         1 G0P       0.156100
     27 C38          6.1990     1.1360    -2.7650 c3         1 G0P       0.149400
     28 O39          5.0390     1.6110    -3.4060 oh         1 G0P      -0.594800
     29 C40          7.1730     0.7870    -0.4530 c6         1 G0P       0.124100
     30 O41          7.7830    -0.3880    -0.9230 oh         1 G0P      -0.585800
     31 C42          6.7730     0.6760     1.0180 c6         1 G0P       0.117100
     32 O43          7.9240     0.3510     1.7550 oh         1 G0P      -0.603800
     33 C44          5.6650    -0.3560     1.1960 c6         1 G0P       0.084100
     34 O45          5.2670    -0.3280     2.5430 oh         1 G0P      -0.602800
     35 H121        -7.1280     0.5270    -0.7210 h1         1 G0P       0.051450
     36 H122        -5.9450     0.7330    -2.0160 h1         1 G0P       0.051450
     37 H132        -6.7400     2.9130    -2.5610 hc         1 G0P       0.054200
     38 H131        -8.2560     2.1530    -2.0810 hc         1 G0P       0.054200
     39 H141        -7.5210     4.4150    -0.7940 hc         1 G0P       0.054200
     40 H142        -8.0660     3.0560     0.1850 hc         1 G0P       0.054200
     41 H151        -5.2050     3.9310    -0.3530 h1         1 G0P       0.051450
     42 H152        -5.9110     3.3740     1.1630 h1         1 G0P       0.051450
     43 H191        -4.4700    -0.3870    -1.0970 h1         1 G0P       0.081700
     44 H201        -4.7220    -0.9100     1.8950 hc         1 G0P       0.053200
     45 H202        -6.0660    -0.7810     0.7850 hc         1 G0P       0.053200
     46 H211        -5.1390    -2.7010    -0.5500 hc         1 G0P       0.043200
     47 H212        -3.8610    -2.8920     0.6310 hc         1 G0P       0.043200
     48 H222        -5.5790    -3.2950     2.4200 hc         1 G0P       0.046700
     49 H221        -6.8480    -3.1200     1.2190 hc         1 G0P       0.046700
     50 H231        -5.8500    -5.0400    -0.0650 h1         1 G0P       0.027200
     51 H232        -4.6540    -5.2360     1.2020 h1         1 G0P       0.027200
     52 H242        -7.5300    -5.5150     1.5940 hn         1 G0P       0.336800
     53 H241        -6.4390    -6.6990     1.6140 hn         1 G0P       0.336800
     54 H251        -2.4790    -0.7920     0.9920 hn         1 G0P       0.319500
     55 H291         0.2330     1.4010    -1.6360 ha         1 G0P       0.143500
     56 H301         2.5960     1.0170    -1.2260 ha         1 G0P       0.151000
     57 H321         1.6050    -2.4060     1.1770 ha         1 G0P       0.151000
     58 H331        -0.7600    -2.0430     0.7210 ha         1 G0P       0.143500
     59 H351         4.0920     0.9860     0.5630 h2         1 G0P       0.044700
     60 H371         5.5290     2.0360    -0.9560 h1         1 G0P       0.050700
     61 H381         7.0510     1.8110    -2.9140 h1         1 G0P       0.040700
     62 H382         6.4970     0.1500    -3.1390 h1         1 G0P       0.040700
     63 H391         5.1970     1.5970    -4.3540 ho         1 G0P       0.410000
     64 H401         7.8400     1.6550    -0.5620 h1         1 G0P       0.051700
     65 H411         8.5130    -0.6040    -0.3330 ho         1 G0P       0.424000
     66 H421         6.3740     1.6570     1.3230 h1         1 G0P       0.048700
     67 H431         7.6680     0.1890     2.6690 ho         1 G0P       0.432000
     68 H441         6.0430    -1.3460     0.9050 h1         1 G0P       0.078700
     69 H451         4.7490    -1.1170     2.7300 ho         1 G0P       0.426000
@<TRIPOS>BOND
     1     1     2 1   
     2     1     5 1   
     3     1    35 1   
     4     1    36 1   
     5     2     3 1   
     6     2    37 1   
     7     2    38 1   
     8     3     4 1   
     9     3    39 1   
    10     3    40 1   
    11     4     5 1   
    12     4    41 1   
    13     4    42 1   
    14     5     6 1   
    15     6     7 2   
    16     6     8 1   
    17     8     9 1   
    18     8    14 1   
    19     8    43 1   
    20     9    10 1   
    21     9    44 1   
    22     9    45 1   
    23    10    11 1   
    24    10    46 1   
    25    10    47 1   
    26    11    12 1   
    27    11    48 1   
    28    11    49 1   
    29    12    13 1   
    30    12    50 1   
    31    12    51 1   
    32    13    52 1   
    33    13    53 1   
    34    14    15 1   
    35    14    54 1   
    36    15    16 2   
    37    15    17 1   
    38    17    18 ar  
    39    17    22 ar  
    40    18    19 ar  
    41    18    55 1   
    42    19    20 ar  
    43    19    56 1   
    44    20    21 ar  
    45    20    23 1   
    46    21    22 ar  
    47    21    57 1   
    48    22    58 1   
    49    23    24 1   
    50    24    25 1   
    51    24    33 1   
    52    24    59 1   
    53    25    26 1   
    54    26    27 1   
    55    26    29 1   
    56    26    60 1   
    57    27    28 1   
    58    27    61 1   
    59    27    62 1   
    60    28    63 1   
    61    29    30 1   
    62    29    31 1   
    63    29    64 1   
    64    30    65 1   
    65    31    32 1   
    66    31    33 1   
    67    31    66 1   
    68    32    67 1   
    69    33    34 1   
    70    33    68 1   
    71    34    69 1   
@<TRIPOS>SUBSTRUCTURE
     1 G0P         1 TEMP              0 ****  ****    0 ROOT
