@<TRIPOS>MOLECULE
G0P
   69    71     1     0     0
SMALL
No Charge or Current Charge


@<TRIPOS>ATOM
      1 C12         -7.0570     1.5600    -0.5530 c5         1 G0P       0.102000
      2 C13         -8.2720     2.5240    -0.5090 c5         1 G0P      -0.094400
      3 C14         -8.6230     2.5290     0.9990 c5         1 G0P      -0.094400
      4 C15         -7.2200     2.6840     1.6340 c5         1 G0P       0.102000
      5 N16         -6.4080     1.8180     0.7550 n          1 G0P      -0.411800
      6 C17         -5.0660     1.4920     1.0500 c          1 G0P       0.590100
      7 O18         -4.5250     1.9720     2.0420 o          1 G0P      -0.608100
      8 C19         -4.3150     0.4720     0.1320 c3         1 G0P       0.035700
      9 C20         -4.8600    -0.9720     0.3180 c3         1 G0P      -0.084400
     10 C21         -4.3100    -2.0000    -0.6980 c3         1 G0P      -0.074400
     11 C22         -4.9360    -3.4040    -0.5350 c3         1 G0P      -0.080400
     12 C23         -4.3800    -4.4270    -1.5470 c3         1 G0P       0.149800
     13 N24         -4.9940    -5.7550    -1.3660 n8         1 G0P      -0.995200
     14 N25         -2.8570     0.5310     0.3930 ns         1 G0P      -0.479900
     15 C26         -1.8690     0.4600    -0.5650 c          1 G0P       0.620700
     16 O27         -2.1410     0.3490    -1.7530 o          1 G0P      -0.604100
     17 C28         -0.4380     0.5320    -0.0720 ca         1 G0P      -0.177600
     18 C29          0.6190     0.4780    -1.0080 ca         1 G0P      -0.039000
     19 C30          1.9590     0.5420    -0.5890 ca         1 G0P      -0.168500
     20 C31          2.2690     0.6570     0.7830 ca         1 G0P       0.160100
     21 C32          1.2240     0.7120     1.7160 ca         1 G0P      -0.168500
     22 C33         -0.1170     0.6490     1.3020 ca         1 G0P      -0.039000
     23 O34          3.5610     0.7350     1.2660 os         1 G0P      -0.343100
     24 C35          4.7000     0.6380     0.3900 c6         1 G0P       0.368300
     25 O36          4.7880    -0.6980    -0.1470 os         1 G0P      -0.447000
     26 C37          5.8620    -0.8560    -1.1130 c6         1 G0P       0.179300
     27 C38          5.7580    -2.2770    -1.7590 c3         1 G0P       0.172600
     28 O39          4.5030    -2.5050    -2.4370 oh         1 G0P      -0.717000
     29 C40          7.2550    -0.5950    -0.4450 c6         1 G0P       0.147300
     30 O41          7.5870    -1.5820     0.5530 oh         1 G0P      -0.708000
     31 C42          7.2360     0.8150     0.2250 c6         1 G0P       0.140300
     32 O43          8.4540     1.0420     0.9580 oh         1 G0P      -0.666000
     33 C44          6.0110     0.9670     1.1780 c6         1 G0P       0.107300
     34 O45          5.9930     2.2910     1.7720 oh         1 G0P      -0.725000
     35 H121        -7.3880     0.5170    -0.6270 h1         1 G0P       0.051450
     36 H122        -6.4000     1.7820    -1.4050 h1         1 G0P       0.051450
     37 H132        -7.9910     3.5270    -0.8510 hc         1 G0P       0.054200
     38 H131        -9.1010     2.1830    -1.1390 hc         1 G0P       0.054200
     39 H141        -9.3010     3.3430     1.2770 hc         1 G0P       0.054200
     40 H142        -9.0940     1.5870     1.3020 hc         1 G0P       0.054200
     41 H151        -6.8660     3.7240     1.5910 h1         1 G0P       0.051450
     42 H152        -7.2030     2.3510     2.6800 h1         1 G0P       0.051450
     43 H191        -4.4950     0.7870    -0.9030 h1         1 G0P       0.081700
     44 H201        -4.6290    -1.3110     1.3360 hc         1 G0P       0.053200
     45 H202        -5.9520    -0.9620     0.2420 hc         1 G0P       0.053200
     46 H211        -4.5000    -1.6380    -1.7160 hc         1 G0P       0.043200
     47 H212        -3.2230    -2.0840    -0.5830 hc         1 G0P       0.043200
     48 H222        -4.7470    -3.7650     0.4840 hc         1 G0P       0.046700
     49 H221        -6.0240    -3.3290    -0.6560 hc         1 G0P       0.046700
     50 H231        -4.5810    -4.0820    -2.5710 h1         1 G0P       0.027200
     51 H232        -3.2930    -4.5220    -1.4190 h1         1 G0P       0.027200
     52 H242        -5.9990    -5.6880    -1.5680 hn         1 G0P       0.392000
     53 H241        -4.6450    -6.3870    -2.0970 hn         1 G0P       0.392000
     54 H251        -2.5570     0.6720     1.3490 hn         1 G0P       0.319500
     55 H291         0.4060     0.3870    -2.0710 ha         1 G0P       0.125500
     56 H301         2.7380     0.4960    -1.3440 ha         1 G0P       0.133000
     57 H321         1.4570     0.8030     2.7740 ha         1 G0P       0.133000
     58 H331        -0.8910     0.6930     2.0640 ha         1 G0P       0.125500
     59 H351         4.5880     1.3630    -0.4300 h2         1 G0P       0.044700
     60 H371         5.7160    -0.1200    -1.9180 h1         1 G0P       0.050700
     61 H381         6.5920    -2.3910    -2.4650 h1         1 G0P       0.040700
     62 H382         5.8980    -3.0270    -0.9680 h1         1 G0P       0.040700
     63 H391         4.4990    -3.4480    -2.7250 ho         1 G0P       0.509000
     64 H401         8.0210    -0.5910    -1.2340 h1         1 G0P       0.051700
     65 H411         8.2660    -1.1370     1.1170 ho         1 G0P       0.523000
     66 H421         7.1400     1.5670    -0.5730 h1         1 G0P       0.048700
     67 H431         8.2600     1.8240     1.5270 ho         1 G0P       0.471000
     68 H441         6.1010     0.2100     1.9730 h1         1 G0P       0.078700
     69 H451         5.1520     2.3620     2.2850 ho         1 G0P       0.525000
@<TRIPOS>BOND
     1     1     2 1   
     2     1     5 1   
     3     1    35 1   
     4     1    36 1   
     5     2     3 1   
     6     2    37 1   
     7     2    38 1   
     8     3     4 1   
     9     3    39 1   
    10     3    40 1   
    11     4     5 1   
    12     4    41 1   
    13     4    42 1   
    14     5     6 1   
    15     6     7 2   
    16     6     8 1   
    17     8     9 1   
    18     8    14 1   
    19     8    43 1   
    20     9    10 1   
    21     9    44 1   
    22     9    45 1   
    23    10    11 1   
    24    10    46 1   
    25    10    47 1   
    26    11    12 1   
    27    11    48 1   
    28    11    49 1   
    29    12    13 1   
    30    12    50 1   
    31    12    51 1   
    32    13    52 1   
    33    13    53 1   
    34    14    15 1   
    35    14    54 1   
    36    15    16 2   
    37    15    17 1   
    38    17    18 ar  
    39    17    22 ar  
    40    18    19 ar  
    41    18    55 1   
    42    19    20 ar  
    43    19    56 1   
    44    20    21 ar  
    45    20    23 1   
    46    21    22 ar  
    47    21    57 1   
    48    22    58 1   
    49    23    24 1   
    50    24    25 1   
    51    24    33 1   
    52    24    59 1   
    53    25    26 1   
    54    26    27 1   
    55    26    29 1   
    56    26    60 1   
    57    27    28 1   
    58    27    61 1   
    59    27    62 1   
    60    28    63 1   
    61    29    30 1   
    62    29    31 1   
    63    29    64 1   
    64    30    65 1   
    65    31    32 1   
    66    31    33 1   
    67    31    66 1   
    68    32    67 1   
    69    33    34 1   
    70    33    68 1   
    71    34    69 1   
@<TRIPOS>SUBSTRUCTURE
     1 G0P         1 TEMP              0 ****  ****    0 ROOT
