@<TRIPOS>MOLECULE
G0Q
   54    58     1     0     0
SMALL
No Charge or Current Charge


@<TRIPOS>ATOM
      1 CAD          5.9250    -1.6960     0.4920 ca         1 G0Q      -0.166000
      2 CAB          7.2160    -1.2180     0.7660 ca         1 G0Q       0.147000
      3 Cl           8.6120    -2.2440     0.4630 cl         1 G0Q      -0.204000
      4 CAA          7.3970     0.0740     1.2800 ca         1 G0Q      -0.129000
      5 CAC          6.2800     0.8910     1.5190 ca         1 G0Q      -0.077000
      6 CAE          4.9850     0.4140     1.2450 ca         1 G0Q      -0.127000
      7 CAF          4.7950    -0.8890     0.7290 ca         1 G0Q      -0.010000
      8 NBG          3.5200    -1.4420     0.4250 ns         1 G0Q      -0.145000
      9 CBF          2.2240    -0.9620     0.5800 c          1 G0Q       0.621700
     10 OBH          1.9660     0.1320     1.0690 o          1 G0Q      -0.570100
     11 CAH          1.1170    -1.8840     0.1000 ca         1 G0Q      -0.147600
     12 CAI         -0.2310    -1.4780     0.2410 ca         1 G0Q      -0.051000
     13 CAJ          1.3780    -3.1450    -0.4850 ca         1 G0Q      -0.097000
     14 CAL          0.3210    -3.9670    -0.9050 ca         1 G0Q      -0.101000
     15 CAM         -1.0170    -3.5530    -0.7650 ca         1 G0Q      -0.083300
     16 CBD         -2.1340    -4.4810    -1.2440 c3         1 G0Q      -0.054800
     17 CAK         -1.2990    -2.2880    -0.1980 ca         1 G0Q       0.288000
     18 NBC         -2.6340    -1.8750    -0.0510 nu         1 G0Q      -0.939900
     19 C6          -3.2610    -0.6400    -0.0220 ca         1 G0Q       0.465900
     20 N1          -2.5610     0.4610    -0.3450 nb         1 G0Q      -0.298000
     21 C5          -4.6070    -0.5230     0.2850 ca         1 G0Q      -0.392900
     22 CBB         -5.6080    -1.4830     0.6570 cc         1 G0Q       0.385800
     23 NBA         -6.7940    -0.8970     0.8750 nd         1 G0Q      -0.517100
     24 NAZ         -6.5160     0.4470     0.6330 na         1 G0Q      -0.017100
     25 CBE         -7.5350     1.5030     0.7490 c3         1 G0Q       0.080900
     26 C4          -5.2050     0.6990     0.2770 ca         1 G0Q       0.163500
     27 N3          -4.5210     1.8150    -0.0300 nb         1 G0Q      -0.224000
     28 C2          -3.2090     1.6530    -0.3330 cp         1 G0Q       0.277500
     29 CAN         -2.4080     2.8800    -0.6600 cp         1 G0Q      -0.209500
     30 CAP         -1.0170     2.8190    -0.9460 ca         1 G0Q      -0.025000
     31 CAR         -0.3260     4.0030    -1.2430 ca         1 G0Q      -0.179000
     32 CAS         -1.0210     5.2200    -1.2500 ca         1 G0Q       0.352900
     33 NAQ         -2.3420     5.3090    -0.9820 nb         1 G0Q      -0.679000
     34 CAO         -3.0100     4.1670    -0.6950 ca         1 G0Q       0.378900
     35 H1           5.8040    -2.7000     0.0940 ha         1 G0Q       0.125000
     36 H2           8.3980     0.4410     1.4900 ha         1 G0Q       0.132000
     37 H3           6.4170     1.8950     1.9150 ha         1 G0Q       0.121000
     38 H4           4.1470     1.0760     1.4390 ha         1 G0Q       0.149000
     39 H5           3.5690    -2.3650     0.0150 hn         1 G0Q       0.156000
     40 H6          -0.4510    -0.5270     0.7150 ha         1 G0Q       0.159000
     41 H7           2.3940    -3.5100    -0.6190 ha         1 G0Q       0.117000
     42 H8           0.5490    -4.9350    -1.3470 ha         1 G0Q       0.119000
     43 H9          -2.7620    -4.8100    -0.4070 hc         1 G0Q       0.048033
     44 H10         -2.7780    -3.9810    -1.9780 hc         1 G0Q       0.048033
     45 H11         -1.7360    -5.3830    -1.7260 hc         1 G0Q       0.048033
     46 H12         -3.2980    -2.6430    -0.0890 hn         1 G0Q       0.507000
     47 H13         -5.5520    -2.5560     0.7850 h4         1 G0Q       0.047800
     48 H14         -8.4980     1.0660     1.0390 h1         1 G0Q       0.061367
     49 H15         -7.2250     2.2300     1.5090 h1         1 G0Q       0.061367
     50 H16         -7.6460     2.0130    -0.2160 h1         1 G0Q       0.061367
     51 H17         -0.4770     1.8750    -0.9390 ha         1 G0Q       0.140000
     52 H18          0.7370     3.9840    -1.4640 ha         1 G0Q       0.127000
     53 H19         -0.5070     6.1530    -1.4770 h4         1 G0Q       0.019100
     54 H20         -4.0720     4.2940    -0.4880 h4         1 G0Q       0.037100
@<TRIPOS>BOND
     1     1     2 ar  
     2     1     7 ar  
     3     1    35 1   
     4     2     3 1   
     5     2     4 ar  
     6     4     5 ar  
     7     4    36 1   
     8     5     6 ar  
     9     5    37 1   
    10     6     7 ar  
    11     6    38 1   
    12     7     8 1   
    13     8     9 1   
    14     8    39 1   
    15     9    10 2   
    16     9    11 1   
    17    11    12 ar  
    18    11    13 ar  
    19    12    17 ar  
    20    12    40 1   
    21    13    14 ar  
    22    13    41 1   
    23    14    15 ar  
    24    14    42 1   
    25    15    16 1   
    26    15    17 ar  
    27    16    43 1   
    28    16    44 1   
    29    16    45 1   
    30    17    18 1   
    31    18    19 1   
    32    18    46 1   
    33    19    20 ar  
    34    19    21 ar  
    35    20    28 ar  
    36    21    22 1   
    37    21    26 ar  
    38    22    23 2   
    39    22    47 1   
    40    23    24 1   
    41    24    25 1   
    42    24    26 1   
    43    25    48 1   
    44    25    49 1   
    45    25    50 1   
    46    26    27 ar  
    47    27    28 ar  
    48    28    29 1   
    49    29    30 ar  
    50    29    34 ar  
    51    30    31 ar  
    52    30    51 1   
    53    31    32 ar  
    54    31    52 1   
    55    32    33 ar  
    56    32    53 1   
    57    33    34 ar  
    58    34    54 1   
@<TRIPOS>SUBSTRUCTURE
     1 G0Q         1 TEMP              0 ****  ****    0 ROOT
