@<TRIPOS>MOLECULE
G0Q
   54    58     1     0     0
SMALL
abcg2


@<TRIPOS>ATOM
      1 CAD          5.3770    -0.5230    -0.3930 ca         1 G0Q      -0.166000
      2 CAB          6.5720     0.1370    -0.1810 ca         1 G0Q       0.147000
      3 CL           7.7490     0.1630    -1.4530 cl         1 G0Q      -0.204000
      4 CAA          6.8490     0.7790     1.0160 ca         1 G0Q      -0.129000
      5 CAC          5.8870     0.7330     2.0130 ca         1 G0Q      -0.077000
      6 CAE          4.6790     0.0750     1.8350 ca         1 G0Q      -0.127000
      7 CAF          4.4150    -0.5580     0.6200 ca         1 G0Q      -0.010000
      8 NBG          3.2440    -1.2660     0.3390 ns         1 G0Q      -0.145000
      9 CBF          2.0450    -1.1940     0.9750 c          1 G0Q       0.621700
     10 OBH          1.8200    -0.4530     1.9150 o          1 G0Q      -0.570100
     11 CAH          0.9860    -2.0870     0.4180 ca         1 G0Q      -0.147600
     12 CAI         -0.3370    -1.7020     0.6070 ca         1 G0Q      -0.051000
     13 CAJ          1.2620    -3.2880    -0.2300 ca         1 G0Q      -0.097000
     14 CAL          0.2190    -4.0740    -0.6910 ca         1 G0Q      -0.101000
     15 CAM         -1.1080    -3.6830    -0.5530 ca         1 G0Q      -0.083300
     16 CBD         -2.2170    -4.5380    -1.0880 c3         1 G0Q      -0.054800
     17 CAK         -1.3750    -2.4730     0.1020 ca         1 G0Q       0.288000
     18 NBC         -2.7150    -2.0850     0.2630 nu         1 G0Q      -0.939900
     19 C6          -3.2270    -0.8420     0.1310 ca         1 G0Q       0.465900
     20 N1          -2.4360     0.1710    -0.1760 nb         1 G0Q      -0.298000
     21 C5          -4.6060    -0.6020     0.3040 ca         1 G0Q      -0.392900
     22 CBB         -5.8000    -1.2950     0.6050 cc         1 G0Q       0.385800
     23 NBA         -6.8140    -0.4670     0.6150 nd         1 G0Q      -0.517100
     24 NAZ         -6.3360     0.7550     0.3340 na         1 G0Q      -0.017100
     25 CBE         -7.2180     1.8920     0.2550 c3         1 G0Q       0.080900
     26 C4          -5.0060     0.7260     0.1340 ca         1 G0Q       0.163500
     27 N3          -4.2100     1.7530    -0.1660 nb         1 G0Q      -0.224000
     28 C2          -2.9470     1.4020    -0.3040 cp         1 G0Q       0.277500
     29 CAN         -1.9760     2.4670    -0.6300 cp         1 G0Q      -0.209500
     30 CAP         -0.6170     2.1930    -0.7640 ca         1 G0Q      -0.025000
     31 CAR          0.2520     3.2280    -1.0600 ca         1 G0Q      -0.179000
     32 CAS         -0.2660     4.5050    -1.2140 ca         1 G0Q       0.352900
     33 NAQ         -1.5590     4.7840    -1.0910 nb         1 G0Q      -0.679000
     34 CAO         -2.3870     3.7890    -0.8060 ca         1 G0Q       0.378900
     35 H1           5.1860    -1.0110    -1.3410 ha         1 G0Q       0.125000
     36 H2           7.7860     1.2960     1.1670 ha         1 G0Q       0.132000
     37 H3           6.0840     1.2210     2.9580 ha         1 G0Q       0.121000
     38 H4           3.9650     0.0560     2.6420 ha         1 G0Q       0.149000
     39 H5           3.2720    -1.8030    -0.5140 hn         1 G0Q       0.156000
     40 H6          -0.5540    -0.7930     1.1450 ha         1 G0Q       0.159000
     41 H7           2.2770    -3.6420    -0.3590 ha         1 G0Q       0.117000
     42 H8           0.4420    -5.0130    -1.1810 ha         1 G0Q       0.119000
     43 H9          -2.8420    -4.9400    -0.2870 hc         1 G0Q       0.048033
     44 H10         -2.8710    -3.9770    -1.7590 hc         1 G0Q       0.048033
     45 H11         -1.8200    -5.3870    -1.6410 hc         1 G0Q       0.048033
     46 H12         -3.3820    -2.8250     0.4210 hn         1 G0Q       0.507000
     47 H13         -5.9510    -2.3440     0.8100 h4         1 G0Q       0.047800
     48 H14         -7.7970     1.9790     1.1720 h1         1 G0Q       0.061367
     49 H15         -6.6180     2.7890     0.1290 h1         1 G0Q       0.061367
     50 H16         -7.8950     1.7960    -0.5920 h1         1 G0Q       0.061367
     51 H17         -0.2540     1.1820    -0.6400 ha         1 G0Q       0.140000
     52 H18          1.3130     3.0530    -1.1710 ha         1 G0Q       0.127000
     53 H19          0.3890     5.3370    -1.4470 h4         1 G0Q       0.019100
     54 H20         -3.4360     4.0430    -0.7100 h4         1 G0Q       0.037100
@<TRIPOS>BOND
     1     1     2 ar  
     2     1     7 ar  
     3     1    35 1   
     4     2     3 1   
     5     2     4 ar  
     6     4     5 ar  
     7     4    36 1   
     8     5     6 ar  
     9     5    37 1   
    10     6     7 ar  
    11     6    38 1   
    12     7     8 1   
    13     8     9 1   
    14     8    39 1   
    15     9    10 2   
    16     9    11 1   
    17    11    12 ar  
    18    11    13 ar  
    19    12    17 ar  
    20    12    40 1   
    21    13    14 ar  
    22    13    41 1   
    23    14    15 ar  
    24    14    42 1   
    25    15    16 1   
    26    15    17 ar  
    27    16    43 1   
    28    16    44 1   
    29    16    45 1   
    30    17    18 1   
    31    18    19 1   
    32    18    46 1   
    33    19    20 ar  
    34    19    21 ar  
    35    20    28 ar  
    36    21    22 1   
    37    21    26 ar  
    38    22    23 2   
    39    22    47 1   
    40    23    24 1   
    41    24    25 1   
    42    24    26 1   
    43    25    48 1   
    44    25    49 1   
    45    25    50 1   
    46    26    27 ar  
    47    27    28 ar  
    48    28    29 1   
    49    29    30 ar  
    50    29    34 ar  
    51    30    31 ar  
    52    30    51 1   
    53    31    32 ar  
    54    31    52 1   
    55    32    33 ar  
    56    32    53 1   
    57    33    34 ar  
    58    34    54 1   
@<TRIPOS>SUBSTRUCTURE
     1 G0Q         1 TEMP              0 ****  ****    0 ROOT
