@<TRIPOS>MOLECULE
G0R
   28    27     1     0     0
SMALL
No Charge or Current Charge


@<TRIPOS>ATOM
      1 C10         10.9470    -2.2190   -17.9410 c2         1 G0R       0.801100
      2 N12         11.7270    -2.4650   -18.8720 n2         1 G0R      -0.905100
      3 C1          10.3370    -3.2980   -10.6400 c3         1 G0R      -0.181100
      4 C2          10.5580    -3.3910   -12.1440 c          1 G0R       0.597100
      5 C5          10.8740    -5.0190   -14.0400 c3         1 G0R       0.103000
      6 C6           9.5620    -4.9150   -14.8480 c3         1 G0R      -0.096400
      7 C7           9.6920    -5.3660   -16.3270 c3         1 G0R      -0.081400
      8 C8          10.6910    -4.5560   -17.1850 c3         1 G0R       0.219800
      9 N4          10.6800    -4.6730   -12.6300 ns         1 G0R      -0.510900
     10 N9          10.2640    -3.1550   -17.3120 nu         1 G0R      -0.951400
     11 N11         10.1950    -1.1660   -17.8680 nv         1 G0R      -1.015200
     12 O3          10.6250    -2.4030   -12.8610 o          1 G0R      -0.595100
     13 H1          11.9100    -3.4700   -18.8150 hn         1 G0R       0.381400
     14 H2          11.1450    -3.8310   -10.1260 hc         1 G0R       0.058700
     15 H3          10.2470    -2.2630   -10.2890 hc         1 G0R       0.058700
     16 H4           9.4580    -3.8940   -10.3710 hc         1 G0R       0.058700
     17 H5          11.2580    -6.0460   -14.0960 h1         1 G0R       0.056200
     18 H6          11.6330    -4.3500   -14.4670 h1         1 G0R       0.056200
     19 H7           9.1860    -3.8860   -14.8080 hc         1 G0R       0.049700
     20 H8           8.8020    -5.5400   -14.3630 hc         1 G0R       0.049700
     21 H9           8.7030    -5.3240   -16.8000 hc         1 G0R       0.043200
     22 H10          9.9960    -6.4190   -16.3460 hc         1 G0R       0.043200
     23 H11         10.7490    -5.0180   -18.1800 h1         1 G0R       0.036700
     24 H12         11.6920    -4.6100   -16.7360 h1         1 G0R       0.036700
     25 H13         10.6140    -5.4240   -11.9520 hn         1 G0R       0.307500
     26 H14          9.7980    -2.7730   -16.4990 hn         1 G0R       0.469000
     27 H15          9.2320    -1.4500   -17.9570 hn         1 G0R       0.456000
     28 H16         10.4690    -0.5020   -18.5780 hn         1 G0R       0.456000
@<TRIPOS>BOND
     1     1     2 2   
     2     1    10 1   
     3     1    11 1   
     4     2    13 1   
     5     3     4 1   
     6     3    14 1   
     7     3    15 1   
     8     3    16 1   
     9     4     9 1   
    10     4    12 2   
    11     5     6 1   
    12     5     9 1   
    13     5    17 1   
    14     5    18 1   
    15     6     7 1   
    16     6    19 1   
    17     6    20 1   
    18     7     8 1   
    19     7    21 1   
    20     7    22 1   
    21     8    10 1   
    22     8    23 1   
    23     8    24 1   
    24     9    25 1   
    25    10    26 1   
    26    11    27 1   
    27    11    28 1   
@<TRIPOS>SUBSTRUCTURE
     1 G0R         1 TEMP              0 ****  ****    0 ROOT
