@<TRIPOS>MOLECULE
G0R
   28    27     1     0     0
SMALL
abcg2


@<TRIPOS>ATOM
      1 C10         10.8830    -2.2880   -17.8670 c2         1 G0R       0.801100
      2 N12         12.0860    -2.4300   -18.2900 n2         1 G0R      -0.905100
      3 C1          10.5210    -3.3340   -10.6960 c3         1 G0R      -0.181100
      4 C2          10.7290    -3.4360   -12.1880 c          1 G0R       0.597100
      5 C5          10.7990    -4.9810   -14.1030 c3         1 G0R       0.103000
      6 C6           9.4640    -4.9380   -14.8400 c3         1 G0R      -0.096400
      7 C7           9.5590    -5.4150   -16.2860 c3         1 G0R      -0.081400
      8 C8          10.5100    -4.6160   -17.1690 c3         1 G0R       0.219800
      9 N4          10.6730    -4.6790   -12.6940 ns         1 G0R      -0.510900
     10 N9          10.1330    -3.2220   -17.2050 nu         1 G0R      -0.951400
     11 N11         10.2610    -1.0630   -17.9950 nv         1 G0R      -1.015200
     12 O3          10.9490    -2.4450   -12.8720 o          1 G0R      -0.595100
     13 H1          12.4540    -3.3480   -18.0780 hn         1 G0R       0.381400
     14 H2          11.4220    -2.9300   -10.2330 hc         1 G0R       0.058700
     15 H3           9.7110    -2.6350   -10.4910 hc         1 G0R       0.058700
     16 H4          10.2870    -4.2830   -10.2180 hc         1 G0R       0.058700
     17 H5          11.2390    -5.9760   -14.1920 h1         1 G0R       0.056200
     18 H6          11.5070    -4.2800   -14.5440 h1         1 G0R       0.056200
     19 H7           9.0610    -3.9230   -14.7970 hc         1 G0R       0.049700
     20 H8           8.7490    -5.5750   -14.3120 hc         1 G0R       0.049700
     21 H9           8.5610    -5.4030   -16.7330 hc         1 G0R       0.043200
     22 H10          9.8860    -6.4580   -16.3070 hc         1 G0R       0.043200
     23 H11         10.5210    -5.0580   -18.1730 h1         1 G0R       0.036700
     24 H12         11.5280    -4.7040   -16.7820 h1         1 G0R       0.036700
     25 H13         10.4340    -5.4390   -12.0790 hn         1 G0R       0.307500
     26 H14          9.1430    -3.0420   -17.1380 hn         1 G0R       0.469000
     27 H15          9.2600    -1.0720   -18.1150 hn         1 G0R       0.456000
     28 H16         10.7140    -0.4550   -18.6570 hn         1 G0R       0.456000
@<TRIPOS>BOND
     1     1     2 2   
     2     1    10 1   
     3     1    11 1   
     4     2    13 1   
     5     3     4 1   
     6     3    14 1   
     7     3    15 1   
     8     3    16 1   
     9     4     9 1   
    10     4    12 2   
    11     5     6 1   
    12     5     9 1   
    13     5    17 1   
    14     5    18 1   
    15     6     7 1   
    16     6    19 1   
    17     6    20 1   
    18     7     8 1   
    19     7    21 1   
    20     7    22 1   
    21     8    10 1   
    22     8    23 1   
    23     8    24 1   
    24     9    25 1   
    25    10    26 1   
    26    11    27 1   
    27    11    28 1   
@<TRIPOS>SUBSTRUCTURE
     1 G0R         1 TEMP              0 ****  ****    0 ROOT
