@<TRIPOS>MOLECULE
G0S
   32    32     1     0     0
SMALL
bcc


@<TRIPOS>ATOM
      1 C1          -0.5030    -0.3950    -0.1150 c6         1 G0S       0.198200
      2 C2          -1.6710    -1.3790     0.0250 c6         1 G0S       0.096100
      3 O2          -1.3940    -2.6040    -0.6050 oh         1 G0S      -0.617800
      4 C3          -2.9010    -0.7910    -0.6560 c6         1 G0S       0.115100
      5 O3          -4.0520    -1.5690    -0.4420 oh         1 G0S      -0.617800
      6 C4          -3.1870     0.6150    -0.1370 c6         1 G0S       0.126100
      7 O4          -3.5740     0.6070     1.2150 oh         1 G0S      -0.585800
      8 C5          -1.9280     1.4590    -0.2850 c6         1 G0S       0.139100
      9 O5          -0.8390     0.8660     0.3980 os         1 G0S      -0.352600
     10 C6          -2.1090     2.8670     0.2390 c3         1 G0S       0.151400
     11 O6          -0.9810     3.6290    -0.1220 oh         1 G0S      -0.580800
     12 S1           0.9200    -1.0430     0.7840 ss         1 G0S      -0.398200
     13 C1A          2.2930    -0.2760    -0.1360 c3         1 G0S       0.086700
     14 C3A          4.8520    -0.2500    -0.3320 c          1 G0S       0.935600
     15 C2A          3.6110    -0.8110     0.3930 c3         1 G0S      -0.212400
     16 O3A          4.6580     0.5100    -1.2990 o          1 G0S      -0.836300
     17 OXT          5.9540    -0.6220     0.1180 o          1 G0S      -0.836300
     18 H1          -0.2230    -0.3230    -1.1780 h2         1 G0S       0.060700
     19 H2          -1.8860    -1.5140     1.0950 h1         1 G0S       0.067700
     20 HA          -0.6560    -3.0230    -0.1470 ho         1 G0S       0.435000
     21 H3          -3.8650    -2.4770    -0.6990 ho         1 G0S       0.427000
     22 H4          -3.9680     1.0620    -0.7710 h1         1 G0S       0.035700
     23 HB          -4.3200     0.0050     1.3090 ho         1 G0S       0.414000
     24 H5          -1.7080     1.5210    -1.3630 h1         1 G0S       0.047700
     25 H6A         -3.0290     3.2730    -0.2000 h1         1 G0S       0.028200
     26 H6B         -2.2520     2.8460     1.3260 h1         1 G0S       0.028200
     27 H6          -1.1300     4.5340     0.1640 ho         1 G0S       0.397000
     28 H1A          2.1690    -0.5080    -1.1930 h1         1 G0S       0.066700
     29 H1B          2.2320     0.8060    -0.0160 h1         1 G0S       0.066700
     30 H2A          3.7030    -0.5980     1.4620 hc         1 G0S       0.032700
     31 H2B          3.6290    -1.9030     0.3080 hc         1 G0S       0.032700
     32 HC          -2.6770    -0.7050    -1.7320 h1         1 G0S       0.045700
@<TRIPOS>BOND
     1     1     2 1   
     2     1     9 1   
     3     1    12 1   
     4     1    18 1   
     5     2     3 1   
     6     2     4 1   
     7     2    19 1   
     8     3    20 1   
     9     4     5 1   
    10     4     6 1   
    11     4    32 1   
    12     5    21 1   
    13     6     7 1   
    14     6     8 1   
    15     6    22 1   
    16     7    23 1   
    17     8     9 1   
    18     8    10 1   
    19     8    24 1   
    20    10    11 1   
    21    10    25 1   
    22    10    26 1   
    23    11    27 1   
    24    12    13 1   
    25    13    15 1   
    26    13    28 1   
    27    13    29 1   
    28    14    15 1   
    29    14    16 1   
    30    14    17 1   
    31    15    30 1   
    32    15    31 1   
@<TRIPOS>SUBSTRUCTURE
     1 G0S         1 TEMP              0 ****  ****    0 ROOT
