@<TRIPOS>MOLECULE
G0S
   32    32     1     0     0
SMALL
No Charge or Current Charge


@<TRIPOS>ATOM
      1 C1          -0.5670    -0.7100    -0.3020 c6         1 G0S       0.269300
      2 C2          -1.8680    -1.5260    -0.0140 c6         1 G0S       0.119300
      3 O2          -1.7950    -2.8680    -0.5510 oh         1 G0S      -0.740000
      4 C3          -3.0990    -0.7700    -0.6020 c6         1 G0S       0.138300
      5 O3          -4.3100    -1.4740    -0.2690 oh         1 G0S      -0.680000
      6 C4          -3.1560     0.7000    -0.0810 c6         1 G0S       0.149300
      7 O4          -3.5120     0.6870     1.3160 oh         1 G0S      -0.708000
      8 C5          -1.7730     1.3840    -0.3500 c6         1 G0S       0.162300
      9 O5          -0.6920     0.6170     0.2430 os         1 G0S      -0.399000
     10 C6          -1.7080     2.8500     0.1900 c3         1 G0S       0.174600
     11 O6          -0.4590     3.5090    -0.1050 oh         1 G0S      -0.703000
     12 S1           0.9360    -1.5020     0.4300 ss         1 G0S      -0.494000
     13 C1A          2.2260    -0.2910    -0.1140 c3         1 G0S       0.134600
     14 C3A          4.6620     0.2260    -0.1860 c          1 G0S       0.725000
     15 C2A          3.6240    -0.7950     0.2830 c3         1 G0S      -0.212400
     16 O3A          5.1090     0.1130    -1.3170 o          1 G0S      -0.731000
     17 OXT          4.9530     1.1400     0.5700 o          1 G0S      -0.731000
     18 H1          -0.4000    -0.6500    -1.3880 h2         1 G0S       0.060700
     19 H2          -1.9830    -1.5740     1.0800 h1         1 G0S       0.067700
     20 HA          -0.9230    -3.2320    -0.2630 ho         1 G0S       0.534000
     21 H3          -4.0920    -2.4250    -0.4150 ho         1 G0S       0.466000
     22 H4          -3.9260     1.2390    -0.6530 h1         1 G0S       0.035700
     23 HB          -4.1650    -0.0510     1.3880 ho         1 G0S       0.513000
     24 H5          -1.6110     1.4270    -1.4370 h1         1 G0S       0.047700
     25 H6A         -2.5400     3.4140    -0.2540 h1         1 G0S       0.028200
     26 H6B         -1.8710     2.8290     1.2750 h1         1 G0S       0.028200
     27 H6          -0.4860     4.3860     0.3420 ho         1 G0S       0.496000
     28 H1A          2.1700    -0.1680    -1.2040 h1         1 G0S       0.066700
     29 H1B          2.0320     0.6830     0.3550 h1         1 G0S       0.066700
     30 H2A          3.6200    -0.8730     1.3760 hc         1 G0S       0.032700
     31 H2B          3.7590    -1.7530    -0.2340 hc         1 G0S       0.032700
     32 HC          -2.9840    -0.7340    -1.6970 h1         1 G0S       0.045700
@<TRIPOS>BOND
     1     1     2 1   
     2     1     9 1   
     3     1    12 1   
     4     1    18 1   
     5     2     3 1   
     6     2     4 1   
     7     2    19 1   
     8     3    20 1   
     9     4     5 1   
    10     4     6 1   
    11     4    32 1   
    12     5    21 1   
    13     6     7 1   
    14     6     8 1   
    15     6    22 1   
    16     7    23 1   
    17     8     9 1   
    18     8    10 1   
    19     8    24 1   
    20    10    11 1   
    21    10    25 1   
    22    10    26 1   
    23    11    27 1   
    24    12    13 1   
    25    13    15 1   
    26    13    28 1   
    27    13    29 1   
    28    14    15 1   
    29    14    16 1   
    30    14    17 1   
    31    15    30 1   
    32    15    31 1   
@<TRIPOS>SUBSTRUCTURE
     1 G0S         1 TEMP              0 ****  ****    0 ROOT
