@<TRIPOS>MOLECULE
G0T
   70    73     1     0     0
SMALL
abcg2


@<TRIPOS>ATOM
      1 C1           4.6010     4.2800     2.4120 ca         1 G0T      -0.133000
      2 C2           3.4820     5.0950     2.3140 ca         1 G0T      -0.112000
      3 C3           4.7580     3.2320     1.5220 ca         1 G0T      -0.071000
      4 C4           2.5340     4.8370     1.3390 ca         1 G0T      -0.123000
      5 C5          -2.8270     2.3110    -0.9640 ca         1 G0T      -0.129000
      6 C6           5.4260    -1.5470    -1.2260 ca         1 G0T      -0.050000
      7 C7           3.4400    -2.0310     0.0040 ca         1 G0T      -0.050000
      8 C8          -3.9990     1.6270    -0.6880 ca         1 G0T      -0.149000
      9 C9           6.0910    -2.5930    -0.5920 ca         1 G0T      -0.188000
     10 C10          4.0860    -3.0690     0.6490 ca         1 G0T      -0.188000
     11 C11          3.7950     2.9530     0.5510 ca         1 G0T      -0.108600
     12 C12         -1.5650     0.2740    -0.8350 ca         1 G0T      -0.093600
     13 C13          4.1020    -1.2480    -0.9450 ca         1 G0T      -0.118300
     14 C14          2.6580     3.7640     0.4550 ca         1 G0T      -0.041300
     15 C15         -1.6010     1.6530    -1.0370 ca         1 G0T      -0.108300
     16 C16         -3.9640     0.2560    -0.4800 ca         1 G0T       0.065100
     17 C17         -2.7410    -0.4140    -0.5570 ca         1 G0T       0.062100
     18 C18          5.4210    -3.3590     0.3570 ca         1 G0T       0.113100
     19 C19          4.1250     1.8240    -0.3820 c          1 G0T       0.592700
     20 C21         -8.7260    -2.4860     1.1860 c          1 G0T       0.716000
     21 C22         -3.9050    -2.4350    -0.4650 c6         1 G0T       0.115600
     22 C23         -4.9710    -1.7060     0.3290 c6         1 G0T       0.126300
     23 C25          3.3790    -0.1160    -1.6300 c3         1 G0T       0.139300
     24 C26          1.5710     3.5740    -0.5730 c3         1 G0T       0.189100
     25 C27         -0.3600     2.4520    -1.3340 c3         1 G0T       0.223100
     26 C28         -0.0180     2.7580     1.0500 c3         1 G0T       0.145100
     27 C30         -6.3090    -2.4110     0.2760 c3         1 G0T      -0.048400
     28 N1           3.1310     1.0140    -0.7540 ns         1 G0T      -0.468900
     29 N2           0.6110     2.5240    -0.2360 n3         1 G0T      -0.687600
     30 O1           0.1450    -0.7380    -2.0720 o          1 G0T      -0.724500
     31 O2          -9.6680    -1.8720     1.7280 o          1 G0T      -0.751000
     32 O3           5.2850     1.6620    -0.7480 o          1 G0T      -0.660100
     33 O4           0.2250    -0.8700     0.1630 o          1 G0T      -0.724500
     34 O5          -8.7620    -3.6500     0.7410 o          1 G0T      -0.751000
     35 O6          -2.6630    -1.7590    -0.3820 os         1 G0T      -0.306100
     36 O7          -5.1210    -0.3920    -0.2060 os         1 G0T      -0.337100
     37 O8           5.9720    -4.3880     1.0340 os         1 G0T      -0.351100
     38 H1           5.3540     4.4680     3.1650 ha         1 G0T       0.100000
     39 H2           3.3510     5.9300     2.9900 ha         1 G0T       0.098000
     40 H3           5.6440     2.6130     1.5810 ha         1 G0T       0.127000
     41 H4           1.6690     5.4840     1.2540 ha         1 G0T       0.106000
     42 H5          -2.8680     3.3840    -1.1140 ha         1 G0T       0.082000
     43 H6           5.9650    -0.9540    -1.9540 ha         1 G0T       0.145500
     44 H7           2.4000    -1.8210     0.2260 ha         1 G0T       0.145500
     45 H8          -4.9460     2.1500    -0.6310 ha         1 G0T       0.108000
     46 H9           7.1240    -2.7860    -0.8490 ha         1 G0T       0.107500
     47 H10          3.5600    -3.6700     1.3810 ha         1 G0T       0.107500
     48 H11         -3.7480    -3.4350    -0.0610 h1         1 G0T       0.053700
     49 H12         -4.2190    -2.5330    -1.5110 h1         1 G0T       0.053700
     50 H13         -4.6380    -1.6240     1.3740 h1         1 G0T       0.049700
     51 H14          7.4850    -5.0030    -0.2630 h1         1 G0T       0.026367
     52 H15          7.9970    -3.8900     1.0250 h1         1 G0T       0.026367
     53 H16          7.5630    -5.5620     1.4160 h1         1 G0T       0.026367
     54 H17          3.9490     0.2130    -2.5010 h1         1 G0T       0.080200
     55 H18          2.4040    -0.4550    -1.9770 h1         1 G0T       0.080200
     56 H19          1.0540     4.5380    -0.7000 h1         1 G0T       0.034700
     57 H20          2.0040     3.3300    -1.5470 h1         1 G0T       0.034700
     58 H21          0.1600     2.0360    -2.2010 h1         1 G0T       0.032200
     59 H22         -0.6820     3.4670    -1.6150 h1         1 G0T       0.032200
     60 H23         -0.5650     3.7120     1.0960 h1         1 G0T       0.036033
     61 H24         -0.7180     1.9550     1.2710 h1         1 G0T       0.036033
     62 H25          0.7330     2.7610     1.8390 h1         1 G0T       0.036033
     63 H26         -7.6060    -0.7260     0.6650 hc         1 G0T       0.025700
     64 H27         -7.0340    -1.5300     2.0990 hc         1 G0T       0.025700
     65 H28         -6.6180    -2.5290    -0.7670 hc         1 G0T       0.047200
     66 H29         -6.1590    -3.4200     0.6660 hc         1 G0T       0.047200
     67 H30          2.1800     1.1830    -0.4250 hn         1 G0T       0.384500
     68 C29         -7.3970    -1.7150     1.0800 c3         1 G0T      -0.203400
     69 C20         -0.2710    -0.5180    -0.9190 c          1 G0T       0.734600
     70 C24          7.3220    -4.7150     0.7790 c3         1 G0T       0.157900
@<TRIPOS>BOND
     1     1     2 ar  
     2     1     3 ar  
     3     1    38 1   
     4     2     4 ar  
     5     2    39 1   
     6     3    11 ar  
     7     3    40 1   
     8     4    14 ar  
     9     4    41 1   
    10     5     8 ar  
    11     5    15 ar  
    12     5    42 1   
    13     6     9 ar  
    14     6    13 ar  
    15     6    43 1   
    16     7    10 ar  
    17     7    13 ar  
    18     7    44 1   
    19     8    16 ar  
    20     8    45 1   
    21     9    18 ar  
    22     9    46 1   
    23    10    18 ar  
    24    10    47 1   
    25    11    14 ar  
    26    11    19 1   
    27    12    15 ar  
    28    12    17 ar  
    29    12    69 1   
    30    13    23 1   
    31    14    24 1   
    32    15    25 1   
    33    16    17 ar  
    34    16    36 1   
    35    17    35 1   
    36    18    37 1   
    37    19    28 1   
    38    19    32 2   
    39    20    31 1   
    40    20    34 1   
    41    20    68 1   
    42    21    22 1   
    43    21    35 1   
    44    21    48 1   
    45    21    49 1   
    46    22    27 1   
    47    22    36 1   
    48    22    50 1   
    49    23    28 1   
    50    23    54 1   
    51    23    55 1   
    52    24    29 1   
    53    24    56 1   
    54    24    57 1   
    55    25    29 1   
    56    25    58 1   
    57    25    59 1   
    58    26    29 1   
    59    26    60 1   
    60    26    61 1   
    61    26    62 1   
    62    27    65 1   
    63    27    66 1   
    64    27    68 1   
    65    28    67 1   
    66    30    69 1   
    67    33    69 1   
    68    37    70 1   
    69    51    70 1   
    70    52    70 1   
    71    53    70 1   
    72    63    68 1   
    73    64    68 1   
@<TRIPOS>SUBSTRUCTURE
     1 G0T         1 TEMP              0 ****  ****    0 ROOT
