@<TRIPOS>MOLECULE
G0T
   70    73     1     0     0
SMALL
No Charge or Current Charge


@<TRIPOS>ATOM
      1 C1           6.0270     4.2520     0.0420 ca         1 G0T      -0.133000
      2 C2           5.1830     5.3580     0.1740 ca         1 G0T      -0.112000
      3 C3           5.5010     3.0150    -0.3560 ca         1 G0T      -0.071000
      4 C4           3.8170     5.2260    -0.1070 ca         1 G0T      -0.123000
      5 C5          -1.8170     1.6940     1.0070 ca         1 G0T      -0.129000
      6 C6           3.0850    -1.9700     0.2860 ca         1 G0T      -0.050000
      7 C7           0.9870    -1.1440     1.1990 ca         1 G0T      -0.050000
      8 C8          -2.5140     0.4780     1.0770 ca         1 G0T      -0.149000
      9 C9           3.2410    -2.8130     1.4010 ca         1 G0T      -0.188000
     10 C10          1.1410    -1.9900     2.3110 ca         1 G0T      -0.188000
     11 C11          4.1210     2.8480    -0.6270 ca         1 G0T      -0.108600
     12 C12         -1.5590     1.4250    -1.4120 ca         1 G0T      -0.093600
     13 C13          1.9570    -1.1330     0.1780 ca         1 G0T      -0.118300
     14 C14          3.2650     3.9900    -0.5140 ca         1 G0T      -0.041300
     15 C15         -1.3230     2.1720    -0.2260 ca         1 G0T      -0.108300
     16 C16         -2.7220    -0.2760    -0.0840 ca         1 G0T       0.065100
     17 C17         -2.2610     0.2040    -1.3360 ca         1 G0T       0.062100
     18 C18          2.2640    -2.8270     2.4210 ca         1 G0T       0.113100
     19 C19          3.6700     1.4460    -1.0170 c          1 G0T       0.592700
     20 C21         -5.3180    -5.4610     0.3330 c          1 G0T       0.716000
     21 C22         -3.4930    -1.5690    -2.4260 c6         1 G0T       0.115600
     22 C23         -3.3170    -2.3770    -1.1190 c6         1 G0T       0.126300
     23 C25          1.7880    -0.2200    -1.0280 c3         1 G0T       0.139300
     24 C26          1.7730     4.0010    -0.8760 c3         1 G0T       0.189100
     25 C27         -0.5610     3.4950    -0.2580 c3         1 G0T       0.223100
     26 C28          1.1510     3.6720     1.5160 c3         1 G0T       0.145100
     27 C30         -4.4060    -3.4730    -0.9410 c3         1 G0T      -0.048400
     28 N1           2.3640     1.1010    -0.7880 ns         1 G0T      -0.468900
     29 N2           0.8720     3.3380     0.0990 n3         1 G0T      -0.687600
     30 O1          -1.7990     2.7810    -3.3110 o          1 G0T      -0.724500
     31 O2          -6.3870    -5.2100     0.8690 o          1 G0T      -0.751000
     32 O3           4.4490     0.6390    -1.5110 o          1 G0T      -0.660100
     33 O4          -0.0930     1.4660    -3.2530 o          1 G0T      -0.724500
     34 O5          -5.0810    -6.5140    -0.2380 o          1 G0T      -0.751000
     35 O6          -2.5080    -0.5170    -2.4900 os         1 G0T      -0.306100
     36 O7          -3.3890    -1.4810     0.0110 os         1 G0T      -0.337100
     37 O8           2.3640    -3.6350     3.5360 os         1 G0T      -0.351100
     38 H1           7.0900     4.3500     0.2520 ha         1 G0T       0.100000
     39 H2           5.5860     6.3200     0.4850 ha         1 G0T       0.098000
     40 H3           6.1790     2.1670    -0.4390 ha         1 G0T       0.127000
     41 H4           3.1790     6.1020    -0.0180 ha         1 G0T       0.106000
     42 H5          -1.6580     2.2680     1.9160 ha         1 G0T       0.082000
     43 H6           3.8440    -1.9640    -0.4940 ha         1 G0T       0.145500
     44 H7           0.1160    -0.4960     1.1290 ha         1 G0T       0.145500
     45 H8          -2.8830     0.1150     2.0340 ha         1 G0T       0.108000
     46 H9           4.1230    -3.4450     1.4550 ha         1 G0T       0.107500
     47 H10          0.3840    -1.9950     3.0930 ha         1 G0T       0.107500
     48 H11         -3.3840    -2.2190    -3.3050 h1         1 G0T       0.053700
     49 H12         -4.4960    -1.1180    -2.4510 h1         1 G0T       0.053700
     50 H13         -2.3250    -2.8520    -1.1270 h1         1 G0T       0.049700
     51 H14          3.5400    -5.2600     2.9210 h1         1 G0T       0.026367
     52 H15          4.4190    -3.9690     3.7890 h1         1 G0T       0.026367
     53 H16          3.3540    -5.0780     4.6800 h1         1 G0T       0.026367
     54 H17          2.2550    -0.6720    -1.9140 h1         1 G0T       0.080200
     55 H18          0.7190    -0.1040    -1.2460 h1         1 G0T       0.080200
     56 H19          1.4570     5.0460    -0.9980 h1         1 G0T       0.034700
     57 H20          1.6560     3.5340    -1.8630 h1         1 G0T       0.034700
     58 H21         -0.6600     3.9430    -1.2540 h1         1 G0T       0.032200
     59 H22         -1.0490     4.2020     0.4280 h1         1 G0T       0.032200
     60 H23          1.0170     4.7460     1.6980 h1         1 G0T       0.036033
     61 H24          0.4770     3.1230     2.1860 h1         1 G0T       0.036033
     62 H25          2.1780     3.3990     1.7920 h1         1 G0T       0.036033
     63 H26         -4.3540    -3.7030     1.1820 hc         1 G0T       0.025700
     64 H27         -3.2400    -4.8160     0.2340 hc         1 G0T       0.025700
     65 H28         -5.3970    -3.0040    -0.9130 hc         1 G0T       0.047200
     66 H29         -4.4020    -4.1220    -1.8260 hc         1 G0T       0.047200
     67 H30          1.7700     1.8230    -0.3840 hn         1 G0T       0.384500
     68 C29         -4.2380    -4.3670     0.3160 c3         1 G0T      -0.203400
     69 C20         -1.1130     1.9280    -2.7630 c          1 G0T       0.734600
     70 C24          3.4750    -4.5280     3.7380 c3         1 G0T       0.157900
@<TRIPOS>BOND
     1     1     2 ar  
     2     1     3 ar  
     3     1    38 1   
     4     2     4 ar  
     5     2    39 1   
     6     3    11 ar  
     7     3    40 1   
     8     4    14 ar  
     9     4    41 1   
    10     5     8 ar  
    11     5    15 ar  
    12     5    42 1   
    13     6     9 ar  
    14     6    13 ar  
    15     6    43 1   
    16     7    10 ar  
    17     7    13 ar  
    18     7    44 1   
    19     8    16 ar  
    20     8    45 1   
    21     9    18 ar  
    22     9    46 1   
    23    10    18 ar  
    24    10    47 1   
    25    11    14 ar  
    26    11    19 1   
    27    12    15 ar  
    28    12    17 ar  
    29    12    69 1   
    30    13    23 1   
    31    14    24 1   
    32    15    25 1   
    33    16    17 ar  
    34    16    36 1   
    35    17    35 1   
    36    18    37 1   
    37    19    28 1   
    38    19    32 2   
    39    20    31 1   
    40    20    34 1   
    41    20    68 1   
    42    21    22 1   
    43    21    35 1   
    44    21    48 1   
    45    21    49 1   
    46    22    27 1   
    47    22    36 1   
    48    22    50 1   
    49    23    28 1   
    50    23    54 1   
    51    23    55 1   
    52    24    29 1   
    53    24    56 1   
    54    24    57 1   
    55    25    29 1   
    56    25    58 1   
    57    25    59 1   
    58    26    29 1   
    59    26    60 1   
    60    26    61 1   
    61    26    62 1   
    62    27    65 1   
    63    27    66 1   
    64    27    68 1   
    65    28    67 1   
    66    30    69 1   
    67    33    69 1   
    68    37    70 1   
    69    51    70 1   
    70    52    70 1   
    71    53    70 1   
    72    63    68 1   
    73    64    68 1   
@<TRIPOS>SUBSTRUCTURE
     1 G0T         1 TEMP              0 ****  ****    0 ROOT
