@<TRIPOS>MOLECULE
G0U
   60    64     1     0     0
SMALL
No Charge or Current Charge


@<TRIPOS>ATOM
      1 C10          3.6340    33.5070    12.7520 cc         1 G0U      -0.020900
      2 N12          2.0800    32.1140    11.8200 na         1 G0U      -0.315400
      3 C13          4.6860    33.9910    13.5840 cg         1 G0U       0.321700
      4 C15          2.9580    35.5200    11.2540 ca         1 G0U       0.478900
      5 C17          3.6680    37.9090    11.8150 c3         1 G0U       0.226800
      6 C20          1.5480    39.9670    14.2890 c5         1 G0U      -0.080900
      7 C21          0.6430    38.7080    14.0960 c5         1 G0U      -0.080900
      8 C22          1.2680    37.9480    12.8910 c5         1 G0U      -0.075900
      9 C24          0.3940    37.8490     8.5810 ca         1 G0U      -0.046000
     10 C26         -0.7220    38.9070     6.6710 ca         1 G0U       0.012000
     11 C01         -1.7370    34.9670     5.2210 c3         1 G0U       0.147900
     12 C03         -0.6770    36.4570     6.9010 ca         1 G0U       0.143100
     13 C04          0.0450    36.5630     8.1190 ca         1 G0U       0.247000
     14 C06          1.2500    35.0170     9.8270 ca         1 G0U       0.451900
     15 C08          1.9680    33.3440    11.1990 ca         1 G0U       0.194500
     16 C09          2.8920    34.2050    11.7320 ca         1 G0U      -0.280800
     17 C11          3.1140    32.2210    12.7830 cd         1 G0U      -0.131100
     18 C18          2.7690    38.3280    13.0070 c5         1 G0U      -0.087700
     19 C19          2.6150    39.8620    13.1630 c5         1 G0U      -0.075900
     20 C25          0.0380    38.9960     7.8520 ca         1 G0U      -0.189000
     21 C27         -1.0260    37.6210     6.1760 ca         1 G0U      -0.205000
     22 C29         -1.1980    41.4020     6.5480 c5         1 G0U       0.095000
     23 C30         -1.8950    42.2020     5.4080 c5         1 G0U      -0.092400
     24 C31         -1.0980    41.6860     4.1860 c5         1 G0U      -0.169400
     25 C32         -0.9450    40.1950     4.4800 c          1 G0U       0.568000
     26 N05          0.3690    35.3780     8.8210 nu         1 G0U      -0.933900
     27 N07          1.1270    33.7390    10.2300 nb         1 G0U      -0.305000
     28 N14          5.5460    34.4230    14.2450 n1         1 G0U      -0.480000
     29 N16          3.8610    36.4490    11.7540 nu         1 G0U      -0.918100
     30 N23          2.1260    35.9280    10.2840 nb         1 G0U      -0.342000
     31 N28         -0.9170    40.1060     5.8870 n          1 G0U      -0.232400
     32 O33         -1.0050    39.2670     3.6840 o          1 G0U      -0.530000
     33 H1           1.5180    31.2940    11.6170 hn         1 G0U       0.365000
     34 H2           4.6460    38.3940    11.9490 h1         1 G0U       0.065700
     35 H3           3.2470    38.2930    10.8740 h1         1 G0U       0.065700
     36 H4           2.0200    39.9550    15.2790 hc         1 G0U       0.041450
     37 H5           0.9780    40.9010    14.2200 hc         1 G0U       0.041450
     38 H6           0.6510    38.0860    14.9990 hc         1 G0U       0.041450
     39 H7          -0.4030    38.9760    13.9040 hc         1 G0U       0.041450
     40 H8           0.8360    38.2850    11.9420 hc         1 G0U       0.046700
     41 H9           1.0970    36.8680    12.9600 hc         1 G0U       0.046700
     42 H10          0.9400    37.9790     9.5060 ha         1 G0U       0.128000
     43 H11         -1.8940    33.8940     5.0610 h1         1 G0U       0.044700
     44 H12         -2.7210    35.4530     5.2500 h1         1 G0U       0.044700
     45 H13         -1.1740    35.3590     4.3640 h1         1 G0U       0.044700
     46 H14          3.4020    31.3860    13.4180 h4         1 G0U       0.226000
     47 H15          3.2160    37.8940    13.9110 hc         1 G0U       0.047700
     48 H16          3.5560    40.3530    13.4390 hc         1 G0U       0.046700
     49 H17          2.2650    40.3320    12.2350 hc         1 G0U       0.046700
     50 H18          0.3600    39.9650     8.2260 ha         1 G0U       0.116000
     51 H19         -1.5780    37.5280     5.2500 ha         1 G0U       0.144000
     52 H20         -0.2620    41.8850     6.8620 h1         1 G0U       0.053200
     53 H21         -1.8460    41.2890     7.4270 h1         1 G0U       0.053200
     54 H22         -1.8270    43.2880     5.5450 hc         1 G0U       0.060200
     55 H23         -2.9570    41.9380     5.3310 hc         1 G0U       0.060200
     56 H24         -0.0990    42.1360     4.2060 hc         1 G0U       0.079700
     57 H25         -1.5560    41.8620     3.2070 hc         1 G0U       0.079700
     58 H26         -0.1050    34.5640     8.4310 hn         1 G0U       0.518000
     59 H27          4.5140    36.0600    12.4320 hn         1 G0U       0.500000
     60 O02         -1.0200    35.1880     6.4490 os         1 G0U      -0.345100
@<TRIPOS>BOND
     1     1     3 1   
     2     1    16 1   
     3     1    17 2   
     4     2    15 1   
     5     2    17 1   
     6     2    33 1   
     7     3    28 3   
     8     4    16 ar  
     9     4    29 1   
    10     4    30 ar  
    11     5    18 1   
    12     5    29 1   
    13     5    34 1   
    14     5    35 1   
    15     6     7 1   
    16     6    19 1   
    17     6    36 1   
    18     6    37 1   
    19     7     8 1   
    20     7    38 1   
    21     7    39 1   
    22     8    18 1   
    23     8    40 1   
    24     8    41 1   
    25     9    13 ar  
    26     9    20 ar  
    27     9    42 1   
    28    10    20 ar  
    29    10    21 ar  
    30    10    31 1   
    31    11    43 1   
    32    11    44 1   
    33    11    45 1   
    34    11    60 1   
    35    12    13 ar  
    36    12    21 ar  
    37    12    60 1   
    38    13    26 1   
    39    14    26 1   
    40    14    27 ar  
    41    14    30 ar  
    42    15    16 ar  
    43    15    27 ar  
    44    17    46 1   
    45    18    19 1   
    46    18    47 1   
    47    19    48 1   
    48    19    49 1   
    49    20    50 1   
    50    21    51 1   
    51    22    23 1   
    52    22    31 1   
    53    22    52 1   
    54    22    53 1   
    55    23    24 1   
    56    23    54 1   
    57    23    55 1   
    58    24    25 1   
    59    24    56 1   
    60    24    57 1   
    61    25    31 1   
    62    25    32 2   
    63    26    58 1   
    64    29    59 1   
@<TRIPOS>SUBSTRUCTURE
     1 G0U         1 TEMP              0 ****  ****    0 ROOT
