@<TRIPOS>MOLECULE
G0U
   60    64     1     0     0
SMALL
bcc


@<TRIPOS>ATOM
      1 C10          3.3560    33.1890    12.6710 cc         1 G0U      -0.020900
      2 N12          1.8190    31.8340    11.8170 na         1 G0U      -0.265100
      3 C13          4.4450    33.6410    13.4400 cg         1 G0U       0.232500
      4 C15          2.4580    35.2590    11.2510 ca         1 G0U       0.807200
      5 C17          3.2800    37.5980    11.1900 c3         1 G0U       0.226800
      6 C20          1.2940    40.4190    11.8120 c5         1 G0U      -0.080900
      7 C21          0.7540    39.6220    12.9950 c5         1 G0U      -0.080900
      8 C22          1.4150    38.2570    12.8120 c5         1 G0U      -0.075900
      9 C24         -0.7180    37.3350     9.3080 ca         1 G0U      -0.064000
     10 C26         -0.7370    38.7810     7.3870 ca         1 G0U       0.104600
     11 C01         -0.0420    35.3920     5.0040 c3         1 G0U       0.124700
     12 C03         -0.3560    36.4090     7.1300 ca         1 G0U       0.143100
     13 C04         -0.4510    36.2300     8.5180 ca         1 G0U       0.108600
     14 C06          0.6620    34.5950     9.9720 ca         1 G0U       0.977900
     15 C08          1.5990    33.0500    11.2430 ca         1 G0U       0.522800
     16 C09          2.5450    33.9370    11.7500 ca         1 G0U      -0.411400
     17 C11          2.8680    31.9050    12.6750 cd         1 G0U      -0.081100
     18 C18          2.8300    38.5630    12.2810 c5         1 G0U      -0.087700
     19 C19          2.7710    40.0200    11.7580 c5         1 G0U      -0.075900
     20 C25         -0.8480    38.6020     8.7630 ca         1 G0U      -0.207000
     21 C27         -0.5140    37.6700     6.5690 ca         1 G0U      -0.223000
     22 C29         -1.5550    41.1260     7.5950 c5         1 G0U       0.095000
     23 C30         -1.7530    42.2170     6.5490 c5         1 G0U      -0.092400
     24 C31         -0.5700    42.0170     5.6160 c5         1 G0U      -0.169400
     25 C32         -0.2560    40.5420     5.7290 c          1 G0U       0.710500
     26 N05         -0.2980    34.9510     9.0720 nu         1 G0U      -0.740300
     27 N07          0.6440    33.3240    10.3610 nb         1 G0U      -0.831000
     28 N14          5.3340    34.0350    14.0640 n1         1 G0U      -0.390800
     29 N16          3.3100    36.2190    11.6300 nu         1 G0U      -0.862900
     30 N23          1.5100    35.5460    10.3670 nb         1 G0U      -0.868000
     31 N28         -0.8840    40.0670     6.8480 n          1 G0U      -0.392000
     32 O33          0.4530    39.9010     4.9800 o          1 G0U      -0.605500
     33 H1           1.2790    31.0010    11.6350 hn         1 G0U       0.314700
     34 H2           4.2810    37.8690    10.8450 h1         1 G0U       0.065700
     35 H3           2.6130    37.6670    10.3310 h1         1 G0U       0.065700
     36 H4           1.1500    41.4960    11.9090 hc         1 G0U       0.041450
     37 H5           0.7840    40.1060    10.8960 hc         1 G0U       0.041450
     38 H6           1.0780    40.0820    13.9330 hc         1 G0U       0.041450
     39 H7          -0.3360    39.5670    13.0190 hc         1 G0U       0.041450
     40 H8           0.8540    37.6810    12.0690 hc         1 G0U       0.046700
     41 H9           1.4290    37.6630    13.7260 hc         1 G0U       0.046700
     42 H10         -0.8170    37.2060    10.3770 ha         1 G0U       0.146000
     43 H11          0.1570    34.3880     4.6400 h1         1 G0U       0.044700
     44 H12         -0.9800    35.7450     4.5670 h1         1 G0U       0.044700
     45 H13          0.7690    36.0500     4.6810 h1         1 G0U       0.044700
     46 H14          3.2020    31.0470    13.2340 h4         1 G0U       0.176000
     47 H15          3.5470    38.5040    13.1050 hc         1 G0U       0.047700
     48 H16          3.3590    40.6750    12.4040 hc         1 G0U       0.046700
     49 H17          3.1890    40.1160    10.7530 hc         1 G0U       0.046700
     50 H18         -1.0380    39.4370     9.4230 ha         1 G0U       0.134000
     51 H19         -0.4580    37.7960     5.5000 ha         1 G0U       0.162000
     52 H20         -0.9280    41.4760     8.4210 h1         1 G0U       0.053200
     53 H21         -2.4930    40.7630     8.0140 h1         1 G0U       0.053200
     54 H22         -1.7900    43.2080     6.9970 hc         1 G0U       0.060200
     55 H23         -2.6890    42.0540     6.0140 hc         1 G0U       0.060200
     56 H24          0.3100    42.5750     5.9510 hc         1 G0U       0.079700
     57 H25         -0.7570    42.2970     4.5800 hc         1 G0U       0.079700
     58 H26         -0.8040    34.1850     8.6560 hn         1 G0U       0.462800
     59 H27          4.0200    35.9820    12.3050 hn         1 G0U       0.444800
     60 O02         -0.1170    35.2970     6.4120 os         1 G0U      -0.321900
@<TRIPOS>BOND
     1     1     3 1   
     2     1    16 1   
     3     1    17 2   
     4     2    15 1   
     5     2    17 1   
     6     2    33 1   
     7     3    28 3   
     8     4    16 ar  
     9     4    29 1   
    10     4    30 ar  
    11     5    18 1   
    12     5    29 1   
    13     5    34 1   
    14     5    35 1   
    15     6     7 1   
    16     6    19 1   
    17     6    36 1   
    18     6    37 1   
    19     7     8 1   
    20     7    38 1   
    21     7    39 1   
    22     8    18 1   
    23     8    40 1   
    24     8    41 1   
    25     9    13 ar  
    26     9    20 ar  
    27     9    42 1   
    28    10    20 ar  
    29    10    21 ar  
    30    10    31 1   
    31    11    43 1   
    32    11    44 1   
    33    11    45 1   
    34    11    60 1   
    35    12    13 ar  
    36    12    21 ar  
    37    12    60 1   
    38    13    26 1   
    39    14    26 1   
    40    14    27 ar  
    41    14    30 ar  
    42    15    16 ar  
    43    15    27 ar  
    44    17    46 1   
    45    18    19 1   
    46    18    47 1   
    47    19    48 1   
    48    19    49 1   
    49    20    50 1   
    50    21    51 1   
    51    22    23 1   
    52    22    31 1   
    53    22    52 1   
    54    22    53 1   
    55    23    24 1   
    56    23    54 1   
    57    23    55 1   
    58    24    25 1   
    59    24    56 1   
    60    24    57 1   
    61    25    31 1   
    62    25    32 2   
    63    26    58 1   
    64    29    59 1   
@<TRIPOS>SUBSTRUCTURE
     1 G0U         1 TEMP              0 ****  ****    0 ROOT
