@<TRIPOS>MOLECULE
G0V
   74    76     1     0     0
SMALL
bcc


@<TRIPOS>ATOM
      1 C01          6.5240     2.7140    -0.3190 c3         1 G0V      -0.108767
      2 C02          5.4660     2.6810    -1.4150 c3         1 G0V       0.201800
      3 C03          4.4870     3.8440    -1.3070 c3         1 G0V      -0.108767
      4 C04          6.1420     2.7050    -2.7810 c3         1 G0V      -0.108767
      5 C06          4.0600     0.9800    -0.3720 c          1 G0V       0.772100
      6 C09          2.9240    -1.0670     0.3700 c3         1 G0V       0.134700
      7 C10          1.6170    -1.6570    -0.1430 c3         1 G0V      -0.023300
      8 C12         -1.0800    -1.0370    -0.4870 c3         1 G0V      -0.081600
      9 C13         -1.4320    -2.1220    -1.5180 c3         1 G0V      -0.021100
     10 C14         -2.8410    -2.6140    -1.3290 ca         1 G0V      -0.091300
     11 C15         -3.8800    -2.1120    -2.1090 ca         1 G0V      -0.123500
     12 C16         -5.1930    -2.5000    -1.8800 ca         1 G0V      -0.130500
     13 C17         -5.4870    -3.3970    -0.8620 ca         1 G0V      -0.129000
     14 C18         -4.4580    -3.9070    -0.0800 ca         1 G0V      -0.130500
     15 C19         -3.1460    -3.5180    -0.3140 ca         1 G0V      -0.123500
     16 C20         -2.0740     0.1050    -0.5880 c          1 G0V       0.687100
     17 C23         -4.1630     0.9940     0.3470 c3         1 G0V       0.105000
     18 C24         -5.3640     0.2970     0.9800 c3         1 G0V      -0.050100
     19 C25         -6.5640     1.1970     0.9880 ca         1 G0V      -0.198600
     20 C26         -7.4560     1.2420    -0.0770 ca         1 G0V      -0.086000
     21 C27         -8.5250     2.1230    -0.0320 ca         1 G0V      -0.245300
     22 C28         -8.6640     2.9370     1.0830 ca         1 G0V       0.401200
     23 C30         -6.8040     2.0600     2.0530 ca         1 G0V       0.405200
     24 C31          3.8780    -2.1790     0.8350 c3         1 G0V      -0.054100
     25 C32          5.1840    -1.6230     1.3250 ca         1 G0V      -0.084300
     26 C33          5.3180    -1.1750     2.6370 ca         1 G0V      -0.116500
     27 C34          6.5050    -0.6060     3.0780 ca         1 G0V      -0.125500
     28 C35          7.5790    -0.4730     2.2080 ca         1 G0V      -0.125000
     29 C36          7.4580    -0.9180     0.8990 ca         1 G0V      -0.125500
     30 C37          6.2700    -1.4890     0.4640 ca         1 G0V      -0.116500
     31 N08          3.5300    -0.2380    -0.6450 ns         1 G0V      -0.562900
     32 N22         -3.0130     0.1190     0.3640 ns         1 G0V      -0.564900
     33 N29         -7.8220     2.9090     2.1090 nb         1 G0V      -0.663000
     34 O05          4.7630     1.4110    -1.4190 os         1 G0V      -0.454900
     35 O07          3.8840     1.5890     0.6610 o          1 G0V      -0.587000
     36 O21         -2.0170     0.9140    -1.5030 o          1 G0V      -0.586100
     37 S11          0.5640    -0.3140    -0.7700 ss         1 G0V      -0.225200
     38 H1           7.1630     1.8330    -0.3710 hc         1 G0V       0.048922
     39 H2           7.1550     3.5930    -0.4550 hc         1 G0V       0.048922
     40 H3           6.0920     2.7620     0.6780 hc         1 G0V       0.048922
     41 H4           5.0240     4.7820    -1.4570 hc         1 G0V       0.048922
     42 H5           3.7170     3.7770    -2.0770 hc         1 G0V       0.048922
     43 H6           4.0030     3.8920    -0.3340 hc         1 G0V       0.048922
     44 H7           6.8430     1.8750    -2.8930 hc         1 G0V       0.048922
     45 H8           5.4120     2.6520    -3.5900 hc         1 G0V       0.048922
     46 H9           6.7040     3.6320    -2.8970 hc         1 G0V       0.048922
     47 H10          2.6960    -0.4220     1.2190 h1         1 G0V       0.098700
     48 H11          1.8050    -2.3920    -0.9290 h1         1 G0V       0.059700
     49 H12          1.1030    -2.1670     0.6740 h1         1 G0V       0.059700
     50 H13         -1.0940    -1.4720     0.5170 h1         1 G0V       0.064700
     51 H14         -1.2970    -1.7130    -2.5210 hc         1 G0V       0.065700
     52 H15         -0.7230    -2.9450    -1.4100 hc         1 G0V       0.065700
     53 H16         -3.6610    -1.4040    -2.9010 ha         1 G0V       0.134000
     54 H17         -5.9870    -2.1010    -2.4990 ha         1 G0V       0.131500
     55 H18         -6.5100    -3.6990    -0.6800 ha         1 G0V       0.132000
     56 H19         -4.6760    -4.6110     0.7140 ha         1 G0V       0.131500
     57 H20         -2.3500    -3.9210     0.3010 ha         1 G0V       0.134000
     58 H21         -4.3900     1.2590    -0.6870 h1         1 G0V       0.059700
     59 H22         -3.9480     1.9260     0.8790 h1         1 G0V       0.059700
     60 H23         -5.5820    -0.6200     0.4260 hc         1 G0V       0.054700
     61 H24         -5.1160     0.0010     2.0040 hc         1 G0V       0.054700
     62 H25         -7.3200     0.5890    -0.9320 ha         1 G0V       0.137000
     63 H26         -9.2390     2.1800    -0.8420 ha         1 G0V       0.142000
     64 H27         -9.4910     3.6360     1.1490 h4         1 G0V       0.020100
     65 H28         -6.1330     2.0560     2.9070 h4         1 G0V       0.018100
     66 H29          3.3840    -2.7460     1.6280 hc         1 G0V       0.050200
     67 H30          4.0480    -2.8760     0.0090 hc         1 G0V       0.050200
     68 H31          4.4830    -1.2700     3.3220 ha         1 G0V       0.126500
     69 H32          6.5910    -0.2670     4.1020 ha         1 G0V       0.130000
     70 H33          8.5050    -0.0280     2.5500 ha         1 G0V       0.130000
     71 H34          8.2900    -0.8210     0.2120 ha         1 G0V       0.130000
     72 H35          6.1870    -1.8380    -0.5590 ha         1 G0V       0.126500
     73 H36          3.8190    -0.6880    -1.5010 hn         1 G0V       0.317500
     74 H37         -2.9780    -0.5900     1.0780 hn         1 G0V       0.312500
@<TRIPOS>BOND
     1     1     2 1   
     2     1    38 1   
     3     1    39 1   
     4     1    40 1   
     5     2     3 1   
     6     2     4 1   
     7     2    34 1   
     8     3    41 1   
     9     3    42 1   
    10     3    43 1   
    11     4    44 1   
    12     4    45 1   
    13     4    46 1   
    14     5    31 1   
    15     5    34 1   
    16     5    35 2   
    17     6     7 1   
    18     6    24 1   
    19     6    31 1   
    20     6    47 1   
    21     7    37 1   
    22     7    48 1   
    23     7    49 1   
    24     8     9 1   
    25     8    16 1   
    26     8    37 1   
    27     8    50 1   
    28     9    10 1   
    29     9    51 1   
    30     9    52 1   
    31    10    11 ar  
    32    10    15 ar  
    33    11    12 ar  
    34    11    53 1   
    35    12    13 ar  
    36    12    54 1   
    37    13    14 ar  
    38    13    55 1   
    39    14    15 ar  
    40    14    56 1   
    41    15    57 1   
    42    16    32 1   
    43    16    36 2   
    44    17    18 1   
    45    17    32 1   
    46    17    58 1   
    47    17    59 1   
    48    18    19 1   
    49    18    60 1   
    50    18    61 1   
    51    19    20 ar  
    52    19    23 ar  
    53    20    21 ar  
    54    20    62 1   
    55    21    22 ar  
    56    21    63 1   
    57    22    33 ar  
    58    22    64 1   
    59    23    33 ar  
    60    23    65 1   
    61    24    25 1   
    62    24    66 1   
    63    24    67 1   
    64    25    26 ar  
    65    25    30 ar  
    66    26    27 ar  
    67    26    68 1   
    68    27    28 ar  
    69    27    69 1   
    70    28    29 ar  
    71    28    70 1   
    72    29    30 ar  
    73    29    71 1   
    74    30    72 1   
    75    31    73 1   
    76    32    74 1   
@<TRIPOS>SUBSTRUCTURE
     1 G0V         1 TEMP              0 ****  ****    0 ROOT
