@<TRIPOS>MOLECULE
G0V
   74    76     1     0     0
SMALL
No Charge or Current Charge


@<TRIPOS>ATOM
      1 C01          6.9710     2.1380    -1.1710 c3         1 G0V      -0.108767
      2 C02          5.6550     2.2910    -1.9790 c3         1 G0V       0.225000
      3 C03          4.9640     3.6620    -1.7640 c3         1 G0V      -0.108767
      4 C04          5.9330     2.0710    -3.4830 c3         1 G0V      -0.108767
      5 C06          4.2740     1.0570    -0.3510 c          1 G0V       0.656100
      6 C09          2.9620    -0.6900     0.8850 c3         1 G0V       0.134700
      7 C10          1.5180    -1.1790     0.6330 c3         1 G0V       0.024600
      8 C12         -1.2430    -0.6520     0.0970 c3         1 G0V      -0.033700
      9 C13         -1.3500    -1.5400    -1.1660 c3         1 G0V      -0.021100
     10 C14         -2.6860    -2.2730    -1.2250 ca         1 G0V      -0.091300
     11 C15         -3.6960    -1.8430    -2.1080 ca         1 G0V      -0.105500
     12 C16         -4.9400    -2.4960    -2.1340 ca         1 G0V      -0.112500
     13 C17         -5.1820    -3.5820    -1.2770 ca         1 G0V      -0.111000
     14 C18         -4.1780    -4.0160    -0.3950 ca         1 G0V      -0.112500
     15 C19         -2.9340    -3.3630    -0.3690 ca         1 G0V      -0.105500
     16 C20         -2.4250     0.3450     0.1580 c          1 G0V       0.620100
     17 C23         -4.6220     0.7910     1.3040 c3         1 G0V       0.105000
     18 C24         -5.6660     0.3230     0.2700 c3         1 G0V      -0.050100
     19 C25         -7.0120     1.0110     0.4550 ca         1 G0V      -0.133300
     20 C26         -7.1830     2.3600     0.0920 ca         1 G0V      -0.068000
     21 C27         -8.4440     2.9470     0.2840 ca         1 G0V      -0.162000
     22 C28         -9.4850     2.1760     0.8270 ca         1 G0V       0.335900
     23 C30         -8.1150     0.3140     0.9920 ca         1 G0V       0.339900
     24 C31          3.8750    -1.8190     1.4210 c3         1 G0V      -0.054100
     25 C32          5.3090    -1.3590     1.6720 ca         1 G0V      -0.084300
     26 C33          5.6340    -0.6610     2.8510 ca         1 G0V      -0.098500
     27 C34          6.9480    -0.2140     3.0720 ca         1 G0V      -0.107500
     28 C35          7.9460    -0.4610     2.1140 ca         1 G0V      -0.107000
     29 C36          7.6280    -1.1570     0.9350 ca         1 G0V      -0.107500
     30 C37          6.3150    -1.6060     0.7150 ca         1 G0V      -0.098500
     31 N08          3.5350    -0.0910    -0.3250 ns         1 G0V      -0.495900
     32 N22         -3.3490     0.0840     1.1490 ns         1 G0V      -0.497900
     33 N29         -9.3320     0.8780     1.1790 nb         1 G0V      -0.663000
     34 O05          4.7470     1.2230    -1.6240 os         1 G0V      -0.478100
     35 O07          4.4680     1.7830     0.6110 o          1 G0V      -0.538000
     36 O21         -2.5420     1.2960    -0.6050 o          1 G0V      -0.586100
     37 S11          0.4000     0.2210     0.1570 ss         1 G0V      -0.321000
     38 H1           7.3430     1.1080    -1.2250 hc         1 G0V       0.048922
     39 H2           7.7460     2.8000    -1.5760 hc         1 G0V       0.048922
     40 H3           6.8390     2.4020    -0.1170 hc         1 G0V       0.048922
     41 H4           5.5410     4.4600    -2.2480 hc         1 G0V       0.048922
     42 H5           3.9570     3.6630    -2.1990 hc         1 G0V       0.048922
     43 H6           4.8840     3.9200    -0.7030 hc         1 G0V       0.048922
     44 H7           6.3800     1.0850    -3.6560 hc         1 G0V       0.048922
     45 H8           5.0040     2.1320    -4.0630 hc         1 G0V       0.048922
     46 H9           6.6240     2.8300    -3.8670 hc         1 G0V       0.048922
     47 H10          2.9080     0.0860     1.6610 h1         1 G0V       0.098700
     48 H11          1.5190    -1.9350    -0.1620 h1         1 G0V       0.059700
     49 H12          1.1270    -1.6430     1.5490 h1         1 G0V       0.059700
     50 H13         -1.3070    -1.2950     0.9840 h1         1 G0V       0.064700
     51 H14         -1.2120    -0.9160    -2.0580 hc         1 G0V       0.065700
     52 H15         -0.5320    -2.2690    -1.1740 hc         1 G0V       0.065700
     53 H16         -3.5220    -0.9960    -2.7690 ha         1 G0V       0.116000
     54 H17         -5.7180    -2.1570    -2.8150 ha         1 G0V       0.113500
     55 H18         -6.1460    -4.0870    -1.2960 ha         1 G0V       0.114000
     56 H19         -4.3650    -4.8570     0.2690 ha         1 G0V       0.113500
     57 H20         -2.1640    -3.7030     0.3210 ha         1 G0V       0.116000
     58 H21         -4.4510     1.8710     1.2000 h1         1 G0V       0.059700
     59 H22         -5.0030     0.6060     2.3170 h1         1 G0V       0.059700
     60 H23         -5.2880     0.5180    -0.7410 hc         1 G0V       0.054700
     61 H24         -5.7810    -0.7650     0.3490 hc         1 G0V       0.054700
     62 H25         -6.3610     2.9360    -0.3280 ha         1 G0V       0.119000
     63 H26         -8.6190     3.9850     0.0180 ha         1 G0V       0.124000
     64 H27        -10.4720     2.6090     0.9860 h4         1 G0V       0.020100
     65 H28         -8.0220    -0.7320     1.2860 h4         1 G0V       0.018100
     66 H29          3.4460    -2.2120     2.3510 hc         1 G0V       0.050200
     67 H30          3.8680    -2.6540     0.7090 hc         1 G0V       0.050200
     68 H31          4.8660    -0.4590     3.5950 ha         1 G0V       0.108500
     69 H32          7.1920     0.3270     3.9840 ha         1 G0V       0.112000
     70 H33          8.9620    -0.1120     2.2830 ha         1 G0V       0.112000
     71 H34          8.3990    -1.3470     0.1920 ha         1 G0V       0.112000
     72 H35          6.0760    -2.1360    -0.2040 ha         1 G0V       0.108500
     73 H36          3.4550    -0.5810    -1.2050 hn         1 G0V       0.317500
     74 H37         -3.1710    -0.7200     1.7380 hn         1 G0V       0.312500
@<TRIPOS>BOND
     1     1     2 1   
     2     1    38 1   
     3     1    39 1   
     4     1    40 1   
     5     2     3 1   
     6     2     4 1   
     7     2    34 1   
     8     3    41 1   
     9     3    42 1   
    10     3    43 1   
    11     4    44 1   
    12     4    45 1   
    13     4    46 1   
    14     5    31 1   
    15     5    34 1   
    16     5    35 2   
    17     6     7 1   
    18     6    24 1   
    19     6    31 1   
    20     6    47 1   
    21     7    37 1   
    22     7    48 1   
    23     7    49 1   
    24     8     9 1   
    25     8    16 1   
    26     8    37 1   
    27     8    50 1   
    28     9    10 1   
    29     9    51 1   
    30     9    52 1   
    31    10    11 ar  
    32    10    15 ar  
    33    11    12 ar  
    34    11    53 1   
    35    12    13 ar  
    36    12    54 1   
    37    13    14 ar  
    38    13    55 1   
    39    14    15 ar  
    40    14    56 1   
    41    15    57 1   
    42    16    32 1   
    43    16    36 2   
    44    17    18 1   
    45    17    32 1   
    46    17    58 1   
    47    17    59 1   
    48    18    19 1   
    49    18    60 1   
    50    18    61 1   
    51    19    20 ar  
    52    19    23 ar  
    53    20    21 ar  
    54    20    62 1   
    55    21    22 ar  
    56    21    63 1   
    57    22    33 ar  
    58    22    64 1   
    59    23    33 ar  
    60    23    65 1   
    61    24    25 1   
    62    24    66 1   
    63    24    67 1   
    64    25    26 ar  
    65    25    30 ar  
    66    26    27 ar  
    67    26    68 1   
    68    27    28 ar  
    69    27    69 1   
    70    28    29 ar  
    71    28    70 1   
    72    29    30 ar  
    73    29    71 1   
    74    30    72 1   
    75    31    73 1   
    76    32    74 1   
@<TRIPOS>SUBSTRUCTURE
     1 G0V         1 TEMP              0 ****  ****    0 ROOT
