@<TRIPOS>MOLECULE
G0W
  105   107     1     0     0
SMALL
No Charge or Current Charge


@<TRIPOS>ATOM
      1 C01         -8.8710    -1.7430    -0.2770 c3         1 G0W      -0.125600
      2 C02         -8.6340    -0.6950     0.8310 c3         1 G0W       0.098600
      3 N03         -7.9200     0.6180     0.4480 n4         1 G0W      -0.510000
      4 C04         -7.4660     1.3160     1.7460 c3         1 G0W       0.098600
      5 C05         -6.6020     2.5900     1.6140 c3         1 G0W      -0.125600
      6 C06         -6.6930     0.3220    -0.4420 c3         1 G0W       0.096600
      7 C07         -5.5550    -0.5340     0.1610 c3         1 G0W      -0.097400
      8 C08         -4.4300    -0.8100    -0.8580 c3         1 G0W      -0.073400
      9 C09         -3.2860    -1.6650    -0.2720 c3         1 G0W      -0.099400
     10 C10         -2.1580    -1.9410    -1.2900 c3         1 G0W       0.104000
     11 N11         -1.0800    -2.8130    -0.7410 n          1 G0W      -0.312000
     12 C12         -1.1480    -4.2080    -0.8440 cc         1 G0W       0.106400
     13 C13         -2.3170    -4.8840    -1.5260 c3         1 G0W      -0.072900
     14 C14         -0.1220    -4.9480    -0.3200 cd         1 G0W      -0.373200
     15 C15          1.0460    -4.3700     0.3340 c          1 G0W       0.585200
     16 O16          1.9390    -5.0680     0.7900 o          1 G0W      -0.519000
     17 N17          1.0580    -2.9750     0.3850 n          1 G0W      -0.369400
     18 C18          2.2010    -2.3100     1.0710 c3         1 G0W       0.100000
     19 C19          3.3580    -1.9730     0.1070 c3         1 G0W      -0.093400
     20 C20          4.5480    -1.2860     0.8120 c3         1 G0W      -0.073400
     21 C21          5.7040    -0.9500    -0.1530 c3         1 G0W      -0.096400
     22 C22          6.8860    -0.2640     0.5690 c3         1 G0W       0.094600
     23 N23          8.0900     0.1880    -0.2870 n4         1 G0W      -0.509000
     24 C24          8.6650    -1.0200    -1.0540 c3         1 G0W       0.098600
     25 C25          9.0510    -2.2730    -0.2390 c3         1 G0W      -0.125600
     26 C26          7.6460     1.2470    -1.3180 c3         1 G0W       0.098600
     27 C27          6.7250     2.3880    -0.8360 c3         1 G0W      -0.125600
     28 C28          9.1650     0.7880     0.6560 c3         1 G0W       0.150900
     29 C29         10.4210     1.3780    -0.0080 ca         1 G0W      -0.103300
     30 C30         11.4390     0.4990    -0.4370 ca         1 G0W      -0.097000
     31 C31         12.5830     0.9780    -1.0930 ca         1 G0W      -0.068000
     32 C32         12.7360     2.3510    -1.3240 ca         1 G0W      -0.062000
     33 C33         11.7540     3.2480    -0.8780 ca         1 G0W      -0.051000
     34 C34         10.6020     2.7780    -0.2060 ca         1 G0W      -0.139200
     35 N35          9.6280     3.7900     0.2970 no         1 G0W       0.675200
     36 O36          9.3640     4.7490    -0.4380 o          1 G0W      -0.375000
     37 O37          9.2560     3.7020     1.4740 o          1 G0W      -0.375000
     38 C38          0.0250    -2.1730    -0.1270 c          1 G0W       0.614000
     39 O39          0.0820    -0.9520    -0.0410 o          1 G0W      -0.572000
     40 C40         -8.8900     1.5340    -0.3440 c3         1 G0W       0.151900
     41 C41        -10.2260     1.8840     0.3350 ca         1 G0W      -0.104300
     42 C42        -10.2410     2.8950     1.3200 ca         1 G0W      -0.098000
     43 C43        -11.4210     3.2210     2.0070 ca         1 G0W      -0.068000
     44 C44        -12.6130     2.5470     1.7140 ca         1 G0W      -0.062000
     45 C45        -12.6290     1.5610     0.7160 ca         1 G0W      -0.049000
     46 C46        -11.4500     1.2310     0.0090 ca         1 G0W      -0.140200
     47 N47        -11.5510     0.2190    -1.0820 no         1 G0W       0.675200
     48 O48        -12.2510    -0.7800    -0.8750 o          1 G0W      -0.373000
     49 O49        -11.0630     0.5010    -2.1820 o          1 G0W      -0.373000
     50 H01         -7.9340    -2.2330    -0.5620 hc         1 G0W       0.074867
     51 H01A        -9.5590    -2.5180     0.0790 hc         1 G0W       0.074867
     52 H01B        -9.2960    -1.2880    -1.1760 hc         1 G0W       0.074867
     53 H02         -9.5960    -0.4210     1.2710 hx         1 G0W       0.091700
     54 H02A        -8.0420    -1.1700     1.6160 hx         1 G0W       0.091700
     55 H04         -8.3640     1.5550     2.3180 hx         1 G0W       0.091700
     56 H04A        -6.9000     0.5830     2.3250 hx         1 G0W       0.091700
     57 H05         -5.6280     2.3630     1.1680 hc         1 G0W       0.074867
     58 H05A        -7.0920     3.3470     0.9940 hc         1 G0W       0.074867
     59 H05B        -6.4230     3.0240     2.6040 hc         1 G0W       0.074867
     60 H06         -7.0580    -0.1760    -1.3430 hx         1 G0W       0.092700
     61 H06A        -6.2720     1.2820    -0.7480 hx         1 G0W       0.092700
     62 H07         -5.1300    -0.0230     1.0320 hc         1 G0W       0.063700
     63 H07A        -5.9570    -1.4880     0.5190 hc         1 G0W       0.063700
     64 H08         -4.8540    -1.3230    -1.7310 hc         1 G0W       0.054200
     65 H08A        -4.0230     0.1450    -1.2130 hc         1 G0W       0.054200
     66 H09         -2.8600    -1.1520     0.5990 hc         1 G0W       0.058700
     67 H09A        -3.6940    -2.6160     0.0910 hc         1 G0W       0.058700
     68 H10         -2.5880    -2.4030    -2.1880 h1         1 G0W       0.072200
     69 H10A        -1.7360    -0.9850    -1.6260 h1         1 G0W       0.072200
     70 H13         -2.3450    -4.6400    -2.5940 hc         1 G0W       0.065700
     71 H13A        -2.2470    -5.9750    -1.4460 hc         1 G0W       0.065700
     72 H13B        -3.2720    -4.5910    -1.0770 hc         1 G0W       0.065700
     73 H14         -0.1130    -6.0310    -0.3640 ha         1 G0W       0.233000
     74 H18          1.8590    -1.3900     1.5620 h1         1 G0W       0.074200
     75 H18A         2.5790    -2.9570     1.8740 h1         1 G0W       0.074200
     76 H19          3.7040    -2.8960    -0.3730 hc         1 G0W       0.058200
     77 H19A         2.9810    -1.3190    -0.6890 hc         1 G0W       0.058200
     78 H20          4.2000    -0.3630     1.2920 hc         1 G0W       0.052700
     79 H20A         4.9230    -1.9410     1.6090 hc         1 G0W       0.052700
     80 H21          6.0480    -1.8730    -0.6320 hc         1 G0W       0.063700
     81 H21A         5.3280    -0.3010    -0.9510 hc         1 G0W       0.063700
     82 H22          6.5070     0.6190     1.0880 hx         1 G0W       0.091700
     83 H22A         7.2670    -0.9500     1.3290 hx         1 G0W       0.091700
     84 H24          7.9200    -1.3160    -1.7960 hx         1 G0W       0.091450
     85 H24A         9.5420    -0.6690    -1.6020 hx         1 G0W       0.091450
     86 H25          9.7570    -2.0310     0.5620 hc         1 G0W       0.074867
     87 H25A         8.1690    -2.7380     0.2150 hc         1 G0W       0.074867
     88 H25B         9.5200    -3.0160    -0.8940 hc         1 G0W       0.074867
     89 H26          8.5530     1.6810    -1.7440 hx         1 G0W       0.091450
     90 H26A         7.1290     0.7200    -2.1240 hx         1 G0W       0.091450
     91 H27          6.6600     3.1680    -1.6030 hc         1 G0W       0.074867
     92 H27A         5.7100     2.0210    -0.6460 hc         1 G0W       0.074867
     93 H27B         7.0940     2.8400     0.0880 hc         1 G0W       0.074867
     94 H28          8.6670     1.5450     1.2620 hx         1 G0W       0.108700
     95 H28A         9.4660    -0.0040     1.3450 hx         1 G0W       0.108700
     96 H30         11.3490    -0.5690    -0.2670 ha         1 G0W       0.127000
     97 H31         13.3520     0.2820    -1.4240 ha         1 G0W       0.150000
     98 H32         13.6230     2.7230    -1.8340 ha         1 G0W       0.157000
     99 H33         11.9000     4.3150    -1.0410 ha         1 G0W       0.167000
    100 H40         -8.3520     2.4580    -0.5650 hx         1 G0W       0.109200
    101 H40A        -9.0700     1.0490    -1.3030 hx         1 G0W       0.109200
    102 H42         -9.3340     3.4380     1.5650 ha         1 G0W       0.125000
    103 H43        -11.4100     3.9980     2.7700 ha         1 G0W       0.149000
    104 H44        -13.5280     2.7980     2.2470 ha         1 G0W       0.157000
    105 H45        -13.5700     1.0640     0.4810 ha         1 G0W       0.169000
@<TRIPOS>BOND
     1     1     2 1   
     2     1    50 1   
     3     1    51 1   
     4     1    52 1   
     5     2     3 1   
     6     2    53 1   
     7     2    54 1   
     8     3     4 1   
     9     3     6 1   
    10     3    40 1   
    11     4     5 1   
    12     4    55 1   
    13     4    56 1   
    14     5    57 1   
    15     5    58 1   
    16     5    59 1   
    17     6     7 1   
    18     6    60 1   
    19     6    61 1   
    20     7     8 1   
    21     7    62 1   
    22     7    63 1   
    23     8     9 1   
    24     8    64 1   
    25     8    65 1   
    26     9    10 1   
    27     9    66 1   
    28     9    67 1   
    29    10    11 1   
    30    10    68 1   
    31    10    69 1   
    32    11    12 1   
    33    11    38 1   
    34    12    13 1   
    35    12    14 2   
    36    13    70 1   
    37    13    71 1   
    38    13    72 1   
    39    14    15 1   
    40    14    73 1   
    41    15    16 2   
    42    15    17 1   
    43    17    18 1   
    44    17    38 1   
    45    18    19 1   
    46    18    74 1   
    47    18    75 1   
    48    19    20 1   
    49    19    76 1   
    50    19    77 1   
    51    20    21 1   
    52    20    78 1   
    53    20    79 1   
    54    21    22 1   
    55    21    80 1   
    56    21    81 1   
    57    22    23 1   
    58    22    82 1   
    59    22    83 1   
    60    23    24 1   
    61    23    26 1   
    62    23    28 1   
    63    24    25 1   
    64    24    84 1   
    65    24    85 1   
    66    25    86 1   
    67    25    87 1   
    68    25    88 1   
    69    26    27 1   
    70    26    89 1   
    71    26    90 1   
    72    27    91 1   
    73    27    92 1   
    74    27    93 1   
    75    28    29 1   
    76    28    94 1   
    77    28    95 1   
    78    29    30 ar  
    79    29    34 ar  
    80    30    31 ar  
    81    30    96 1   
    82    31    32 ar  
    83    31    97 1   
    84    32    33 ar  
    85    32    98 1   
    86    33    34 ar  
    87    33    99 1   
    88    34    35 1   
    89    35    36 1   
    90    35    37 1   
    91    38    39 2   
    92    40    41 1   
    93    40   100 1   
    94    40   101 1   
    95    41    42 ar  
    96    41    46 ar  
    97    42    43 ar  
    98    42   102 1   
    99    43    44 ar  
   100    43   103 1   
   101    44    45 ar  
   102    44   104 1   
   103    45    46 ar  
   104    45   105 1   
   105    46    47 1   
   106    47    48 1   
   107    47    49 1   
@<TRIPOS>SUBSTRUCTURE
     1 G0W         1 TEMP              0 ****  ****    0 ROOT
