@<TRIPOS>MOLECULE
G0W
  105   107     1     0     0
SMALL
bcc


@<TRIPOS>ATOM
      1 C01         -8.7020    -1.8010    -0.0620 c3         1 G0W      -0.125600
      2 C02         -8.3620    -0.7440     0.9670 c3         1 G0W       0.126800
      3 N03         -7.6730     0.4930     0.4400 n4         1 G0W      -0.622800
      4 C04         -7.1170     1.2250     1.6370 c3         1 G0W       0.126800
      5 C05         -6.2280     2.4080     1.3200 c3         1 G0W      -0.125600
      6 C06         -6.5680     0.1310    -0.5200 c3         1 G0W       0.124800
      7 C07         -5.4470    -0.7020     0.0700 c3         1 G0W      -0.097400
      8 C08         -4.3960    -0.9760    -1.0030 c3         1 G0W      -0.073400
      9 C09         -3.2360    -1.7980    -0.4590 c3         1 G0W      -0.099400
     10 C10         -2.1750    -2.0320    -1.5240 c3         1 G0W       0.104000
     11 N11         -1.0660    -2.8530    -1.0350 n          1 G0W      -0.379000
     12 C12         -1.0890    -4.2210    -1.1390 cc         1 G0W       0.106400
     13 C13         -2.2330    -4.8690    -1.8440 c3         1 G0W      -0.072900
     14 C14         -0.0820    -4.9590    -0.6270 cd         1 G0W      -0.323200
     15 C15          1.0310    -4.3490     0.0410 c          1 G0W       0.727700
     16 O16          1.9770    -4.9630     0.5070 o          1 G0W      -0.594500
     17 N17          0.9680    -2.9610     0.1410 n          1 G0W      -0.503400
     18 C18          2.0640    -2.2670     0.8140 c3         1 G0W       0.100000
     19 C19          3.2140    -1.9320    -0.1250 c3         1 G0W      -0.093400
     20 C20          4.3050    -1.1630     0.6090 c3         1 G0W      -0.073400
     21 C21          5.5080    -0.8730    -0.2830 c3         1 G0W      -0.096400
     22 C22          6.5550    -0.1300     0.5250 c3         1 G0W       0.122800
     23 N23          7.7790     0.3000    -0.2410 n4         1 G0W      -0.621800
     24 C24          8.4500    -0.8900    -0.8800 c3         1 G0W       0.126800
     25 C25          8.7130    -2.0610     0.0430 c3         1 G0W      -0.125600
     26 C26          7.4090     1.2540    -1.3510 c3         1 G0W       0.126800
     27 C27          6.4560     2.3690    -0.9680 c3         1 G0W      -0.125600
     28 C28          8.6860     0.9710     0.7800 c3         1 G0W       0.179100
     29 C29         10.0190     1.4400     0.2600 ca         1 G0W      -0.103300
     30 C30         11.0760     0.5310     0.2130 ca         1 G0W      -0.115000
     31 C31         12.3220     0.8740    -0.2870 ca         1 G0W      -0.086000
     32 C32         12.5490     2.1520    -0.7680 ca         1 G0W      -0.080000
     33 C33         11.5310     3.0890    -0.7210 ca         1 G0W      -0.069000
     34 C34         10.3030     2.7330    -0.1900 ca         1 G0W      -0.139200
     35 N35          9.3330     3.8160    -0.0810 no         1 G0W       0.295200
     36 O36          9.1360     4.4890    -1.0620 o          1 G0W      -0.185000
     37 O37          8.8100     3.9950     0.9940 o          1 G0W      -0.185000
     38 C38         -0.0400    -2.1870    -0.3910 c          1 G0W       0.823500
     39 O39         -0.0330    -0.9750    -0.2990 o          1 G0W      -0.647500
     40 C40         -8.6370     1.3650    -0.3500 c3         1 G0W       0.180100
     41 C41         -9.8230     1.8840     0.4200 ca         1 G0W      -0.104300
     42 C42         -9.6770     3.0620     1.1510 ca         1 G0W      -0.116000
     43 C43        -10.7040     3.5850     1.9210 ca         1 G0W      -0.086000
     44 C44        -11.9230     2.9320     1.9880 ca         1 G0W      -0.080000
     45 C45        -12.1150     1.7700     1.2600 ca         1 G0W      -0.067000
     46 C46        -11.0840     1.2820     0.4740 ca         1 G0W      -0.140200
     47 N47        -11.4170     0.1190    -0.3390 no         1 G0W       0.295200
     48 O48        -11.9580    -0.8090     0.2090 o          1 G0W      -0.183000
     49 O49        -11.1610     0.1680    -1.5190 o          1 G0W      -0.183000
     50 H01         -7.8170    -2.3260    -0.4180 hc         1 G0W       0.074867
     51 H01A        -9.3370    -2.5370     0.4280 hc         1 G0W       0.074867
     52 H01B        -9.2420    -1.4330    -0.9310 hc         1 G0W       0.074867
     53 H02         -9.2460    -0.3990     1.5030 hx         1 G0W       0.091700
     54 H02A        -7.7030    -1.1710     1.7200 hx         1 G0W       0.091700
     55 H04         -7.9700     1.5170     2.2480 hx         1 G0W       0.091700
     56 H04A        -6.5610     0.4910     2.2170 hx         1 G0W       0.091700
     57 H05         -5.2780     2.1110     0.8800 hc         1 G0W       0.074867
     58 H05A        -6.6890     3.1470     0.6670 hc         1 G0W       0.074867
     59 H05B        -6.0050     2.9040     2.2630 hc         1 G0W       0.074867
     60 H06         -7.0350    -0.3910    -1.3550 hx         1 G0W       0.092700
     61 H06A        -6.1760     1.0680    -0.9160 hx         1 G0W       0.092700
     62 H07         -4.9720    -0.1840     0.9050 hc         1 G0W       0.063700
     63 H07A        -5.8200    -1.6530     0.4560 hc         1 G0W       0.063700
     64 H08         -4.8570    -1.5010    -1.8450 hc         1 G0W       0.054200
     65 H08A        -4.0200    -0.0260    -1.3950 hc         1 G0W       0.054200
     66 H09         -2.7900    -1.2830     0.3960 hc         1 G0W       0.058700
     67 H09A        -3.6090    -2.7570    -0.0890 hc         1 G0W       0.058700
     68 H10         -2.6040    -2.5200    -2.3960 h1         1 G0W       0.072200
     69 H10A        -1.7720    -1.0840    -1.8750 h1         1 G0W       0.072200
     70 H13         -2.2520    -4.5960    -2.9000 hc         1 G0W       0.065700
     71 H13A        -2.1380    -5.9490    -1.7780 hc         1 G0W       0.065700
     72 H13B        -3.1940    -4.5880    -1.4130 hc         1 G0W       0.065700
     73 H14         -0.0940    -6.0350    -0.7180 ha         1 G0W       0.183000
     74 H18          1.6680    -1.3620     1.2680 h1         1 G0W       0.074200
     75 H18A         2.4120    -2.9040     1.6240 h1         1 G0W       0.074200
     76 H19          3.6280    -2.8530    -0.5420 hc         1 G0W       0.058200
     77 H19A         2.8470    -1.3370    -0.9650 hc         1 G0W       0.058200
     78 H20          3.8960    -0.2230     0.9920 hc         1 G0W       0.052700
     79 H20A         4.6310    -1.7360     1.4830 hc         1 G0W       0.052700
     80 H21          5.9020    -1.8190    -0.6610 hc         1 G0W       0.063700
     81 H21A         5.1870    -0.2930    -1.1510 hc         1 G0W       0.063700
     82 H22          6.1300     0.7710     0.9680 hx         1 G0W       0.091700
     83 H22A         6.9040    -0.7460     1.3530 hx         1 G0W       0.091700
     84 H24          7.8110    -1.2060    -1.7020 hx         1 G0W       0.091450
     85 H24A         9.3700    -0.5260    -1.3340 hx         1 G0W       0.091450
     86 H25          9.2420    -1.7970     0.9570 hc         1 G0W       0.074867
     87 H25A         7.8020    -2.5860     0.3220 hc         1 G0W       0.074867
     88 H25B         9.3420    -2.7660    -0.5000 hc         1 G0W       0.074867
     89 H26          8.3450     1.6350    -1.7570 hx         1 G0W       0.091450
     90 H26A         6.9580     0.6530    -2.1380 hx         1 G0W       0.091450
     91 H27          6.4430     3.0840    -1.7890 hc         1 G0W       0.074867
     92 H27A         5.4390     2.0070    -0.8370 hc         1 G0W       0.074867
     93 H27B         6.7330     2.9110    -0.0670 hc         1 G0W       0.074867
     94 H28          8.1040     1.7680     1.2290 hx         1 G0W       0.108700
     95 H28A         8.8500     0.2350     1.5650 hx         1 G0W       0.108700
     96 H30         10.9290    -0.4730     0.5870 ha         1 G0W       0.145000
     97 H31         13.1120     0.1360    -0.2980 ha         1 G0W       0.168000
     98 H32         13.5150     2.4310    -1.1650 ha         1 G0W       0.175000
     99 H33         11.7070     4.0990    -1.0640 ha         1 G0W       0.185000
    100 H40         -8.0560     2.2130    -0.7070 hx         1 G0W       0.109200
    101 H40A        -8.9170     0.7950    -1.2300 hx         1 G0W       0.109200
    102 H42         -8.7380     3.5970     1.1130 ha         1 G0W       0.143000
    103 H43        -10.5460     4.5050     2.4660 ha         1 G0W       0.167000
    104 H44        -12.7290     3.3270     2.5900 ha         1 G0W       0.175000
    105 H45        -13.0730     1.2690     1.2770 ha         1 G0W       0.187000
@<TRIPOS>BOND
     1     1     2 1   
     2     1    50 1   
     3     1    51 1   
     4     1    52 1   
     5     2     3 1   
     6     2    53 1   
     7     2    54 1   
     8     3     4 1   
     9     3     6 1   
    10     3    40 1   
    11     4     5 1   
    12     4    55 1   
    13     4    56 1   
    14     5    57 1   
    15     5    58 1   
    16     5    59 1   
    17     6     7 1   
    18     6    60 1   
    19     6    61 1   
    20     7     8 1   
    21     7    62 1   
    22     7    63 1   
    23     8     9 1   
    24     8    64 1   
    25     8    65 1   
    26     9    10 1   
    27     9    66 1   
    28     9    67 1   
    29    10    11 1   
    30    10    68 1   
    31    10    69 1   
    32    11    12 1   
    33    11    38 1   
    34    12    13 1   
    35    12    14 2   
    36    13    70 1   
    37    13    71 1   
    38    13    72 1   
    39    14    15 1   
    40    14    73 1   
    41    15    16 2   
    42    15    17 1   
    43    17    18 1   
    44    17    38 1   
    45    18    19 1   
    46    18    74 1   
    47    18    75 1   
    48    19    20 1   
    49    19    76 1   
    50    19    77 1   
    51    20    21 1   
    52    20    78 1   
    53    20    79 1   
    54    21    22 1   
    55    21    80 1   
    56    21    81 1   
    57    22    23 1   
    58    22    82 1   
    59    22    83 1   
    60    23    24 1   
    61    23    26 1   
    62    23    28 1   
    63    24    25 1   
    64    24    84 1   
    65    24    85 1   
    66    25    86 1   
    67    25    87 1   
    68    25    88 1   
    69    26    27 1   
    70    26    89 1   
    71    26    90 1   
    72    27    91 1   
    73    27    92 1   
    74    27    93 1   
    75    28    29 1   
    76    28    94 1   
    77    28    95 1   
    78    29    30 ar  
    79    29    34 ar  
    80    30    31 ar  
    81    30    96 1   
    82    31    32 ar  
    83    31    97 1   
    84    32    33 ar  
    85    32    98 1   
    86    33    34 ar  
    87    33    99 1   
    88    34    35 1   
    89    35    36 1   
    90    35    37 1   
    91    38    39 2   
    92    40    41 1   
    93    40   100 1   
    94    40   101 1   
    95    41    42 ar  
    96    41    46 ar  
    97    42    43 ar  
    98    42   102 1   
    99    43    44 ar  
   100    43   103 1   
   101    44    45 ar  
   102    44   104 1   
   103    45    46 ar  
   104    45   105 1   
   105    46    47 1   
   106    47    48 1   
   107    47    49 1   
@<TRIPOS>SUBSTRUCTURE
     1 G0W         1 TEMP              0 ****  ****    0 ROOT
