@<TRIPOS>MOLECULE
G0X
   42    44     1     0     0
SMALL
bcc


@<TRIPOS>ATOM
      1 C10          0.6610    -1.4140    85.4860 ca         1 G0X       0.557300
      2 C13          0.3340    -3.4260    83.7460 ca         1 G0X      -0.154900
      3 C20         -4.1650    -3.5380    83.1430 ca         1 G0X      -0.126300
      4 C21         -5.3060    -4.2800    83.4200 ca         1 G0X      -0.103500
      5 C22         -6.0980    -4.7850    82.3970 ca         1 G0X      -0.122500
      6 C24         -4.5930    -3.8120    80.7800 ca         1 G0X      -0.122500
      7 C1           5.5660    -5.7060    82.8200 c6         1 G0X      -0.073200
      8 C2           4.8940    -6.7870    83.6490 c6         1 G0X      -0.065400
      9 C3           4.3320    -6.1910    84.9280 c6         1 G0X      -0.181400
     10 C4           3.3900    -5.0400    84.6740 c          1 G0X       0.613300
     11 C5           3.6010    -4.2560    83.4540 ce         1 G0X      -0.480400
     12 C6           4.6570    -4.5490    82.5980 c2         1 G0X       0.288900
     13 C8           1.5420    -2.8030    83.9490 ca         1 G0X       0.457800
     14 C9           2.7480    -3.1440    83.1180 c          1 G0X       0.539800
     15 C11         -0.5980    -1.9920    85.3930 ca         1 G0X      -0.161900
     16 C12         -0.8170    -3.0180    84.4520 ca         1 G0X       0.259600
     17 C19         -3.3200    -2.9840    84.2590 c3         1 G0X       0.278100
     18 C23         -5.7320    -4.5440    81.0840 ca         1 G0X       0.037400
     19 C25         -3.8160    -3.3150    81.8130 ca         1 G0X      -0.103500
     20 N7           1.6990    -1.7830    84.7780 nb         1 G0X      -0.661000
     21 N17         -2.0060    -3.6200    84.2440 nu         1 G0X      -0.763600
     22 O14          4.9200    -3.8310    81.5520 oh         1 G0X      -0.487100
     23 O27          2.9550    -2.4180    82.1430 o          1 G0X      -0.576100
     24 CL1          0.2350    -4.7180    82.6070 cl         1 G0X      -0.091400
     25 CL2          0.9290    -0.1330    86.6090 cl         1 G0X      -0.135000
     26 CL3         -1.8340    -1.5290    86.4950 cl         1 G0X      -0.069400
     27 CL4         -6.7150    -5.1630    79.7980 cl         1 G0X      -0.104400
     28 H1          -5.5890    -4.4690    84.4480 ha         1 G0X       0.141000
     29 H2          -6.9850    -5.3600    82.6260 ha         1 G0X       0.151500
     30 H3          -4.3160    -3.6280    79.7500 ha         1 G0X       0.151500
     31 H4           5.9040    -6.0820    81.8540 hc         1 G0X       0.081700
     32 H5           6.4560    -5.3300    83.3390 hc         1 G0X       0.081700
     33 H6           4.0940    -7.2520    83.0670 hc         1 G0X       0.056700
     34 H7           5.6140    -7.5710    83.8820 hc         1 G0X       0.056700
     35 H8           3.8140    -6.9380    85.5290 hc         1 G0X       0.074200
     36 H9           5.1530    -5.8040    85.5440 hc         1 G0X       0.074200
     37 H12         -3.2050    -1.9090    84.1180 h1         1 G0X       0.064200
     38 H13         -3.8260    -3.1400    85.2120 h1         1 G0X       0.064200
     39 H14         -2.9290    -2.7390    81.5740 ha         1 G0X       0.141000
     40 H15         -1.9670    -4.4660    83.6970 hn         1 G0X       0.441800
     41 H16          4.2550    -3.0820    81.5140 ho         1 G0X       0.505000
     42 O28          2.5190    -4.7570    85.4750 o          1 G0X      -0.534100
@<TRIPOS>BOND
     1     1    15 ar  
     2     1    20 ar  
     3     1    25 1   
     4     2    13 ar  
     5     2    16 ar  
     6     2    24 1   
     7     3     4 ar  
     8     3    17 1   
     9     3    19 ar  
    10     4     5 ar  
    11     4    28 1   
    12     5    18 ar  
    13     5    29 1   
    14     6    18 ar  
    15     6    19 ar  
    16     6    30 1   
    17     7     8 1   
    18     7    12 1   
    19     7    31 1   
    20     7    32 1   
    21     8     9 1   
    22     8    33 1   
    23     8    34 1   
    24     9    10 1   
    25     9    35 1   
    26     9    36 1   
    27    10    11 1   
    28    10    42 2   
    29    11    12 2   
    30    11    14 1   
    31    12    22 1   
    32    13    14 1   
    33    13    20 ar  
    34    14    23 2   
    35    15    16 ar  
    36    15    26 1   
    37    16    21 1   
    38    17    21 1   
    39    17    37 1   
    40    17    38 1   
    41    18    27 1   
    42    19    39 1   
    43    21    40 1   
    44    22    41 1   
@<TRIPOS>SUBSTRUCTURE
     1 G0X         1 TEMP              0 ****  ****    0 ROOT
