@<TRIPOS>MOLECULE
G0X
   42    44     1     0     0
SMALL
No Charge or Current Charge


@<TRIPOS>ATOM
      1 C10          0.5390    -1.1270    86.1420 ca         1 G0X       0.492000
      2 C13          0.6270    -2.9460    84.0780 ca         1 G0X       0.002000
      3 C20         -3.7740    -3.5780    82.8150 ca         1 G0X      -0.126300
      4 C21         -4.8300    -4.2640    83.4480 ca         1 G0X      -0.085500
      5 C22         -5.6010    -5.1940    82.7280 ca         1 G0X      -0.104500
      6 C24         -4.2660    -4.7650    80.7400 ca         1 G0X      -0.104500
      7 C1           4.7510    -5.7900    82.3030 c6         1 G0X      -0.073200
      8 C2           3.8960    -6.8500    83.0290 c6         1 G0X      -0.065400
      9 C3           3.7860    -6.4900    84.5240 c6         1 G0X      -0.181400
     10 C4           3.2100    -5.0870    84.7290 c          1 G0X       0.613300
     11 C5           3.6490    -4.0270    83.7750 ce         1 G0X      -0.480400
     12 C6           4.3350    -4.3700    82.6610 c2         1 G0X       0.288900
     13 C8           1.7930    -2.3110    84.5730 ca         1 G0X       0.392500
     14 C9           3.1750    -2.6160    83.9760 c          1 G0X       0.539800
     15 C11         -0.6670    -1.7240    85.7370 ca         1 G0X      -0.005000
     16 C12         -0.6200    -2.6430    84.6660 ca         1 G0X       0.398000
     17 C19         -2.9350    -2.5770    83.5940 c3         1 G0X       0.278100
     18 C23         -5.3190    -5.4430    81.3750 ca         1 G0X       0.129000
     19 C25         -3.4940    -3.8340    81.4580 ca         1 G0X      -0.085500
     20 N7           1.7360    -1.3950    85.5820 nb         1 G0X      -0.661000
     21 N17         -1.7760    -3.2740    84.1660 nu         1 G0X      -0.957200
     22 O14          4.7340    -3.4760    81.7520 oh         1 G0X      -0.526100
     23 O27          3.8720    -1.7100    83.5180 o          1 G0X      -0.576100
     24 Cl1          0.6940    -4.0590    82.6890 cl         1 G0X      -0.183000
     25 Cl2          0.5820     0.0430    87.4590 cl         1 G0X      -0.135000
     26 Cl3         -2.1800    -1.3320    86.5840 cl         1 G0X      -0.161000
     27 Cl4         -6.2830    -6.6070    80.4760 cl         1 G0X      -0.196000
     28 H1          -5.0510    -4.0790    84.4970 ha         1 G0X       0.123000
     29 H2          -6.4150    -5.7220    83.2180 ha         1 G0X       0.133500
     30 H3          -4.0480    -4.9610    79.6930 ha         1 G0X       0.133500
     31 H4           4.6820    -5.9430    81.2180 hc         1 G0X       0.081700
     32 H5           5.8090    -5.9230    82.5670 hc         1 G0X       0.081700
     33 H6           2.8920    -6.8890    82.5830 hc         1 G0X       0.056700
     34 H7           4.3390    -7.8480    82.9030 hc         1 G0X       0.056700
     35 H8           3.2160    -7.2260    85.1060 hc         1 G0X       0.074200
     36 H9           4.8100    -6.4640    84.9200 hc         1 G0X       0.074200
     37 H12         -2.6030    -1.7800    82.9120 h1         1 G0X       0.064200
     38 H13         -3.5500    -2.1110    84.3750 h1         1 G0X       0.064200
     39 H14         -2.6770    -3.3150    80.9590 ha         1 G0X       0.123000
     40 H15         -1.5570    -4.1400    83.6690 hn         1 G0X       0.497000
     41 H16          4.5320    -2.5990    82.1650 ho         1 G0X       0.544000
     42 O28          2.4440    -4.8630    85.6530 o          1 G0X      -0.534100
@<TRIPOS>BOND
     1     1    15 ar  
     2     1    20 ar  
     3     1    25 1   
     4     2    13 ar  
     5     2    16 ar  
     6     2    24 1   
     7     3     4 ar  
     8     3    17 1   
     9     3    19 ar  
    10     4     5 ar  
    11     4    28 1   
    12     5    18 ar  
    13     5    29 1   
    14     6    18 ar  
    15     6    19 ar  
    16     6    30 1   
    17     7     8 1   
    18     7    12 1   
    19     7    31 1   
    20     7    32 1   
    21     8     9 1   
    22     8    33 1   
    23     8    34 1   
    24     9    10 1   
    25     9    35 1   
    26     9    36 1   
    27    10    11 1   
    28    10    42 2   
    29    11    12 2   
    30    11    14 1   
    31    12    22 1   
    32    13    14 1   
    33    13    20 ar  
    34    14    23 2   
    35    15    16 ar  
    36    15    26 1   
    37    16    21 1   
    38    17    21 1   
    39    17    37 1   
    40    17    38 1   
    41    18    27 1   
    42    19    39 1   
    43    21    40 1   
    44    22    41 1   
@<TRIPOS>SUBSTRUCTURE
     1 G0X         1 TEMP              0 ****  ****    0 ROOT
