@<TRIPOS>MOLECULE
G0Y
   74    76     1     0     0
SMALL
bcc


@<TRIPOS>ATOM
      1 C10         -1.6000     1.4200    -0.5340 c3         1 G0Y      -0.024300
      2 C15          3.2020     3.3170    -0.6050 ca         1 G0Y      -0.122500
      3 C17          5.4990     3.3920     0.1090 ca         1 G0Y      -0.129000
      4 C20          2.0930    -0.0850     0.4250 c          1 G0Y       0.688100
      5 C24          5.4190    -0.4760    -0.8930 c3         1 G0Y      -0.052100
      6 C01         -6.6250    -2.7230     0.5460 c3         1 G0Y      -0.108767
      7 C02         -5.2070    -3.2180     0.2890 c3         1 G0Y       0.201800
      8 C04         -4.5580    -3.7580     1.5590 c3         1 G0Y      -0.108767
      9 C16          4.5270     3.6540    -0.8480 ca         1 G0Y      -0.131000
     10 C06         -4.1240    -1.0290     0.2960 c          1 G0Y       0.774100
     11 C18          5.1380     2.7930     1.3090 ca         1 G0Y      -0.131000
     12 C23          4.1910    -1.1550    -0.2890 c3         1 G0Y       0.103000
     13 C31         -3.9780     2.0820    -1.0160 c3         1 G0Y      -0.052100
     14 C32         -5.4290     1.8260    -0.7260 ca         1 G0Y      -0.083300
     15 C33         -6.0460     2.4280     0.3680 ca         1 G0Y      -0.116000
     16 C09         -3.0650     1.1280    -0.2270 c3         1 G0Y       0.138700
     17 C12          1.0870     0.9870     0.0490 c3         1 G0Y      -0.077600
     18 C03         -5.2280    -4.3070    -0.7770 c3         1 G0Y      -0.108767
     19 C13          1.4070     2.2750     0.8240 c3         1 G0Y      -0.020100
     20 C14          2.8290     2.7110     0.5940 ca         1 G0Y      -0.093300
     21 C19          3.8120     2.4530     1.5460 ca         1 G0Y      -0.122500
     22 C25          6.6620    -1.2730    -0.6400 ca         1 G0Y      -0.196600
     23 C26          6.9820    -2.3970    -1.3930 ca         1 G0Y      -0.089000
     24 C27          8.1280    -3.1150    -1.0910 ca         1 G0Y      -0.245300
     25 C28          8.9220    -2.6830    -0.0390 ca         1 G0Y       0.401200
     26 C30          7.5340    -0.9330     0.3900 ca         1 G0Y       0.407200
     27 C34         -7.3690     2.1520     0.6810 ca         1 G0Y      -0.125000
     28 C35         -8.0970     1.2600    -0.0960 ca         1 G0Y      -0.124000
     29 C36         -7.4940     0.6560    -1.1910 ca         1 G0Y      -0.125000
     30 C37         -6.1710     0.9400    -1.5020 ca         1 G0Y      -0.116000
     31 N08         -3.3690    -0.2520    -0.5150 ns         1 G0Y      -0.566900
     32 N22          3.0140    -0.3460    -0.5100 ns         1 G0Y      -0.565900
     33 N29          8.6350    -1.6110     0.6900 nb         1 G0Y      -0.663000
     34 O05         -4.3990    -2.1800    -0.3190 os         1 G0Y      -0.456900
     35 O07         -4.4640    -0.7250     1.4190 o          1 G0Y      -0.586000
     36 O21          2.0590    -0.6180     1.5250 o          1 G0Y      -0.583100
     37 S11         -0.5530     0.3110     0.4510 ss         1 G0Y      -0.232200
     38 H1          -1.3920     1.2770    -1.5980 h1         1 G0Y       0.059200
     39 H2          -1.3830     2.4590    -0.2850 h1         1 G0Y       0.059200
     40 H3           2.4480     3.5240    -1.3560 ha         1 G0Y       0.134500
     41 H4           6.5320     3.6530    -0.0800 ha         1 G0Y       0.133000
     42 H5           5.2740    -0.3520    -1.9700 hc         1 G0Y       0.055200
     43 H6           5.5170     0.5250    -0.4660 hc         1 G0Y       0.055200
     44 H7          -7.0680    -2.3160    -0.3640 hc         1 G0Y       0.048811
     45 H8          -7.2430    -3.5600     0.8740 hc         1 G0Y       0.048811
     46 H9          -6.6660    -1.9540     1.3140 hc         1 G0Y       0.048811
     47 H10         -5.1010    -4.6460     1.8840 hc         1 G0Y       0.048811
     48 H11         -3.5240    -4.0540     1.3750 hc         1 G0Y       0.048811
     49 H12         -4.5740    -3.0380     2.3740 hc         1 G0Y       0.048811
     50 H13          4.8010     4.1230    -1.7840 ha         1 G0Y       0.132500
     51 H14          5.8890     2.5880     2.0610 ha         1 G0Y       0.132500
     52 H15          4.0600    -2.1520    -0.7200 h1         1 G0Y       0.061700
     53 H16          4.3240    -1.2830     0.7850 h1         1 G0Y       0.061700
     54 H17         -3.7760     1.9680    -2.0850 hc         1 G0Y       0.049700
     55 H18         -3.7150     3.1090    -0.7520 hc         1 G0Y       0.049700
     56 H19         -5.4820     3.1210     0.9830 ha         1 G0Y       0.126500
     57 H20         -3.2360     1.2850     0.8390 h1         1 G0Y       0.101700
     58 H21          1.1170     1.1870    -1.0260 h1         1 G0Y       0.063700
     59 H22         -5.6860    -3.9510    -1.7010 hc         1 G0Y       0.048811
     60 H23         -4.2210    -4.6600    -1.0060 hc         1 G0Y       0.048811
     61 H24         -5.8080    -5.1600    -0.4250 hc         1 G0Y       0.048811
     62 H25          0.7130     3.0570     0.5100 hc         1 G0Y       0.067200
     63 H26          1.2330     2.0990     1.8870 hc         1 G0Y       0.067200
     64 H27          3.5350     1.9760     2.4780 ha         1 G0Y       0.134500
     65 H28          6.3450    -2.7080    -2.2130 ha         1 G0Y       0.135000
     66 H29          8.4070    -3.9920    -1.6590 ha         1 G0Y       0.142000
     67 H30          9.8250    -3.2220     0.2240 h4         1 G0Y       0.020100
     68 H31          7.3270    -0.0570     0.9990 h4         1 G0Y       0.018100
     69 H32         -7.8330     2.6330     1.5330 ha         1 G0Y       0.129500
     70 H33         -9.1290     1.0420     0.1460 ha         1 G0Y       0.129000
     71 H34         -8.0550    -0.0370    -1.8040 ha         1 G0Y       0.129500
     72 H35         -5.7120     0.4660    -2.3620 ha         1 G0Y       0.126500
     73 H36         -3.1920    -0.5800    -1.4520 hn         1 G0Y       0.318500
     74 H37          2.9490     0.1370    -1.3910 hn         1 G0Y       0.310500
@<TRIPOS>BOND
     1     1    16 1   
     2     1    37 1   
     3     1    38 1   
     4     1    39 1   
     5     2     9 ar  
     6     2    20 ar  
     7     2    40 1   
     8     3     9 ar  
     9     3    11 ar  
    10     3    41 1   
    11     4    17 1   
    12     4    32 1   
    13     4    36 2   
    14     5    12 1   
    15     5    22 1   
    16     5    42 1   
    17     5    43 1   
    18     6     7 1   
    19     6    44 1   
    20     6    45 1   
    21     6    46 1   
    22     7     8 1   
    23     7    18 1   
    24     7    34 1   
    25     8    47 1   
    26     8    48 1   
    27     8    49 1   
    28     9    50 1   
    29    10    31 1   
    30    10    34 1   
    31    10    35 2   
    32    11    21 ar  
    33    11    51 1   
    34    12    32 1   
    35    12    52 1   
    36    12    53 1   
    37    13    14 1   
    38    13    16 1   
    39    13    54 1   
    40    13    55 1   
    41    14    15 ar  
    42    14    30 ar  
    43    15    27 ar  
    44    15    56 1   
    45    16    31 1   
    46    16    57 1   
    47    17    19 1   
    48    17    37 1   
    49    17    58 1   
    50    18    59 1   
    51    18    60 1   
    52    18    61 1   
    53    19    20 1   
    54    19    62 1   
    55    19    63 1   
    56    20    21 ar  
    57    21    64 1   
    58    22    23 ar  
    59    22    26 ar  
    60    23    24 ar  
    61    23    65 1   
    62    24    25 ar  
    63    24    66 1   
    64    25    33 ar  
    65    25    67 1   
    66    26    33 ar  
    67    26    68 1   
    68    27    28 ar  
    69    27    69 1   
    70    28    29 ar  
    71    28    70 1   
    72    29    30 ar  
    73    29    71 1   
    74    30    72 1   
    75    31    73 1   
    76    32    74 1   
@<TRIPOS>SUBSTRUCTURE
     1 G0Y         1 TEMP              0 ****  ****    0 ROOT
