@<TRIPOS>MOLECULE
G0Y
   74    76     1     0     0
SMALL
No Charge or Current Charge


@<TRIPOS>ATOM
      1 C10         -1.6270     1.6240    -0.1120 c3         1 G0Y       0.023600
      2 C15          3.0210     3.1950    -1.3220 ca         1 G0Y      -0.104500
      3 C17          5.4210     3.5220    -1.0730 ca         1 G0Y      -0.111000
      4 C20          2.2540    -0.0010     0.5540 c          1 G0Y       0.621100
      5 C24          5.3870    -0.5960    -0.0440 c3         1 G0Y      -0.052100
      6 C01         -6.5780    -2.7790     0.2070 c3         1 G0Y      -0.108767
      7 C02         -5.1060    -3.2570     0.1050 c3         1 G0Y       0.225000
      8 C04         -4.5670    -3.8560     1.4300 c3         1 G0Y      -0.108767
      9 C16          4.2680     3.5300    -1.8760 ca         1 G0Y      -0.113000
     10 C06         -4.1400    -1.0120     0.4340 c          1 G0Y       0.658100
     11 C18          5.3250     3.1810     0.2860 ca         1 G0Y      -0.113000
     12 C23          4.1180    -1.3920    -0.4100 c3         1 G0Y       0.103000
     13 C31         -4.0720     2.2240    -0.6100 c3         1 G0Y      -0.052100
     14 C32         -5.5430     1.8750    -0.4000 ca         1 G0Y      -0.083300
     15 C33         -6.2000     2.2590     0.7850 ca         1 G0Y      -0.098000
     16 C09         -3.1090     1.2540     0.1180 c3         1 G0Y       0.138700
     17 C12          1.1570     1.0260     0.1830 c3         1 G0Y      -0.029700
     18 C03         -4.9660    -4.2900    -1.0350 c3         1 G0Y      -0.108767
     19 C13          1.5720     2.4480     0.6300 c3         1 G0Y      -0.020100
     20 C14          2.9190     2.8510     0.0410 ca         1 G0Y      -0.093300
     21 C19          4.0780     2.8460     0.8420 ca         1 G0Y      -0.104500
     22 C25          6.6170    -1.4890     0.0440 ca         1 G0Y      -0.131300
     23 C26          7.3380    -1.8320    -1.1140 ca         1 G0Y      -0.071000
     24 C27          8.4630    -2.6610    -0.9750 ca         1 G0Y      -0.162000
     25 C28          8.8290    -3.1170     0.3030 ca         1 G0Y       0.335900
     26 C30          7.0570    -1.9930     1.2870 ca         1 G0Y       0.341900
     27 C34         -7.5480     1.9160     0.9920 ca         1 G0Y      -0.107000
     28 C35         -8.2460     1.1850     0.0160 ca         1 G0Y      -0.106000
     29 C36         -7.5960     0.7990    -1.1690 ca         1 G0Y      -0.107000
     30 C37         -6.2490     1.1440    -1.3760 ca         1 G0Y      -0.098000
     31 N08         -3.3750    -0.1330    -0.2770 ns         1 G0Y      -0.499900
     32 N22          2.9450    -0.5220    -0.5200 ns         1 G0Y      -0.498900
     33 N29          8.1410    -2.7930     1.4230 nb         1 G0Y      -0.663000
     34 O05         -4.2690    -2.1530    -0.3100 os         1 G0Y      -0.480100
     35 O07         -4.6170    -0.7890     1.5350 o          1 G0Y      -0.537000
     36 O21          2.5000    -0.3330     1.7070 o          1 G0Y      -0.583100
     37 S11         -0.4970     0.5580     0.9000 ss         1 G0Y      -0.328000
     38 H1          -1.3780     1.5060    -1.1750 h1         1 G0Y       0.059200
     39 H2          -1.4670     2.6730     0.1660 h1         1 G0Y       0.059200
     40 H3           2.1340     3.1980    -1.9530 ha         1 G0Y       0.116500
     41 H4           6.3860     3.7790    -1.5030 ha         1 G0Y       0.115000
     42 H5           5.5460     0.1890    -0.7940 hc         1 G0Y       0.055200
     43 H6           5.2280    -0.0790     0.9100 hc         1 G0Y       0.055200
     44 H7          -6.8700    -2.2230    -0.6930 hc         1 G0Y       0.048811
     45 H8          -7.2530    -3.6370     0.3070 hc         1 G0Y       0.048811
     46 H9          -6.7420    -2.1340     1.0770 hc         1 G0Y       0.048811
     47 H10         -5.0370    -4.8260     1.6280 hc         1 G0Y       0.048811
     48 H11         -3.4830    -4.0100     1.3740 hc         1 G0Y       0.048811
     49 H12         -4.7820    -3.2120     2.2890 hc         1 G0Y       0.048811
     50 H13          4.3410     3.7930    -2.9290 ha         1 G0Y       0.114500
     51 H14          6.2170     3.1720     0.9090 ha         1 G0Y       0.114500
     52 H15          4.2690    -1.8990    -1.3720 h1         1 G0Y       0.061700
     53 H16          3.9290    -2.1600     0.3510 h1         1 G0Y       0.061700
     54 H17         -3.8350     2.2260    -1.6810 hc         1 G0Y       0.049700
     55 H18         -3.8810     3.2450    -0.2570 hc         1 G0Y       0.049700
     56 H19         -5.6660     2.8190     1.5490 ha         1 G0Y       0.108500
     57 H20         -3.3010     1.3480     1.1960 h1         1 G0Y       0.101700
     58 H21          1.0550     1.0190    -0.9090 h1         1 G0Y       0.063700
     59 H22         -5.3010    -3.8660    -1.9890 hc         1 G0Y       0.048811
     60 H23         -3.9220    -4.6060    -1.1490 hc         1 G0Y       0.048811
     61 H24         -5.5710    -5.1820    -0.8300 hc         1 G0Y       0.048811
     62 H25          0.8070     3.1690     0.3210 hc         1 G0Y       0.067200
     63 H26          1.6030     2.4860     1.7270 hc         1 G0Y       0.067200
     64 H27          4.0160     2.5740     1.8930 ha         1 G0Y       0.116500
     65 H28          7.0360    -1.4670    -2.0930 ha         1 G0Y       0.117000
     66 H29          9.0490    -2.9510    -1.8430 ha         1 G0Y       0.124000
     67 H30          9.6970    -3.7610     0.4350 h4         1 G0Y       0.020100
     68 H31          6.5220    -1.7510     2.2050 h4         1 G0Y       0.018100
     69 H32         -8.0490     2.2130     1.9100 ha         1 G0Y       0.111500
     70 H33         -9.2880     0.9170     0.1770 ha         1 G0Y       0.111000
     71 H34         -8.1340     0.2310    -1.9240 ha         1 G0Y       0.111500
     72 H35         -5.7510     0.8330    -2.2920 ha         1 G0Y       0.108500
     73 H36         -3.0420    -0.4650    -1.1710 hn         1 G0Y       0.318500
     74 H37          2.6740    -0.1950    -1.4400 hn         1 G0Y       0.310500
@<TRIPOS>BOND
     1     1    16 1   
     2     1    37 1   
     3     1    38 1   
     4     1    39 1   
     5     2     9 ar  
     6     2    20 ar  
     7     2    40 1   
     8     3     9 ar  
     9     3    11 ar  
    10     3    41 1   
    11     4    17 1   
    12     4    32 1   
    13     4    36 2   
    14     5    12 1   
    15     5    22 1   
    16     5    42 1   
    17     5    43 1   
    18     6     7 1   
    19     6    44 1   
    20     6    45 1   
    21     6    46 1   
    22     7     8 1   
    23     7    18 1   
    24     7    34 1   
    25     8    47 1   
    26     8    48 1   
    27     8    49 1   
    28     9    50 1   
    29    10    31 1   
    30    10    34 1   
    31    10    35 2   
    32    11    21 ar  
    33    11    51 1   
    34    12    32 1   
    35    12    52 1   
    36    12    53 1   
    37    13    14 1   
    38    13    16 1   
    39    13    54 1   
    40    13    55 1   
    41    14    15 ar  
    42    14    30 ar  
    43    15    27 ar  
    44    15    56 1   
    45    16    31 1   
    46    16    57 1   
    47    17    19 1   
    48    17    37 1   
    49    17    58 1   
    50    18    59 1   
    51    18    60 1   
    52    18    61 1   
    53    19    20 1   
    54    19    62 1   
    55    19    63 1   
    56    20    21 ar  
    57    21    64 1   
    58    22    23 ar  
    59    22    26 ar  
    60    23    24 ar  
    61    23    65 1   
    62    24    25 ar  
    63    24    66 1   
    64    25    33 ar  
    65    25    67 1   
    66    26    33 ar  
    67    26    68 1   
    68    27    28 ar  
    69    27    69 1   
    70    28    29 ar  
    71    28    70 1   
    72    29    30 ar  
    73    29    71 1   
    74    30    72 1   
    75    31    73 1   
    76    32    74 1   
@<TRIPOS>SUBSTRUCTURE
     1 G0Y         1 TEMP              0 ****  ****    0 ROOT
