@<TRIPOS>MOLECULE
G10
   75    78     1     0     0
SMALL
No Charge or Current Charge


@<TRIPOS>ATOM
      1 N1           1.1810     1.4530     4.9950 nv         1 G10      -1.091000
      2 C2           1.9140     1.4020     3.8450 ca         1 G10       0.368000
      3 C3           3.1740     0.7940     3.8470 ca         1 G10      -0.211000
      4 C4           3.9330     0.7370     2.6660 ca         1 G10       0.031000
      5 C5           3.4200     1.2930     1.4780 ca         1 G10      -0.362500
      6 C6           2.1540     1.9130     1.4800 ca         1 G10       0.031000
      7 C7           1.4050     1.9600     2.6670 ca         1 G10      -0.211000
      8 S8           4.3810     1.1820    -0.0390 sy         1 G10       1.201600
      9 O9           3.7380     1.9950    -1.0760 o          1 G10      -0.549000
     10 O10          5.7940     1.3400     0.3210 o          1 G10      -0.549000
     11 N11          4.2020    -0.4540    -0.4990 n3         1 G10      -0.790500
     12 C12          4.7030    -0.7240    -1.8690 c3         1 G10       0.234800
     13 C13          5.0090    -2.2150    -2.1900 c3         1 G10      -0.081700
     14 C14          5.5030    -2.3760    -3.6450 c3         1 G10      -0.093100
     15 C15          6.0140    -2.8400    -1.1920 c3         1 G10      -0.093100
     16 C16          2.9190    -1.1250    -0.1290 c3         1 G10       0.193800
     17 C17          1.6310    -0.6580    -0.8880 c3         1 G10       0.130300
     18 O18          1.5210    -1.2920    -2.1850 oh         1 G10      -0.649000
     19 C19          0.3300    -0.8850    -0.0610 c3         1 G10       0.096700
     20 N20         -0.8240    -0.2980    -0.7520 ns         1 G10      -0.484900
     21 C21         -1.7380     0.5430    -0.1860 c          1 G10       0.654100
     22 O22         -1.6820     0.9800     0.9530 o          1 G10      -0.538000
     23 O23         -2.7180     0.7900    -1.1040 os         1 G10      -0.459100
     24 C24         -3.7790     1.6750    -0.6440 c5         1 G10       0.175300
     25 C25         -3.2560     3.1360    -0.7220 c5         1 G10       0.129600
     26 O26         -3.3240     3.4260    -2.1320 os         1 G10      -0.451000
     27 C27         -4.5980     2.9490    -2.6010 c5         1 G10       0.384300
     28 O28         -4.4230     2.4060    -3.9280 os         1 G10      -0.432000
     29 C29         -4.0930     1.0060    -3.7950 c5         1 G10       0.113600
     30 C30         -5.0570     0.5420    -2.6710 c5         1 G10       0.172000
     31 C31         -4.9760     1.7470    -1.6730 c5         1 G10      -0.199700
     32 C32          0.0420    -2.3640     0.3150 c3         1 G10      -0.054100
     33 C33         -2.4290    -2.9260     0.5880 ca         1 G10      -0.100500
     34 C34         -3.5880    -3.0400     1.3740 ca         1 G10      -0.105500
     35 C35         -3.5390    -2.7430     2.7470 ca         1 G10      -0.106000
     36 C36         -2.3300    -2.3310     3.3320 ca         1 G10      -0.105500
     37 C37         -1.1700    -2.2150     2.5450 ca         1 G10      -0.100500
     38 C38         -1.2130    -2.5130     1.1690 ca         1 G10      -0.088300
     39 F39         -4.7130    -0.6910    -2.1150 f          1 G10      -0.105000
     40 F40         -6.3540     0.4200    -3.1690 f          1 G10      -0.105000
     41 H1           0.3540     2.0450     5.0310 hn         1 G10       0.472000
     42 H2           1.6240     1.2190     5.8810 hn         1 G10       0.472000
     43 H3           3.5690     0.3600     4.7600 ha         1 G10       0.122500
     44 H4           4.9080     0.2520     2.6750 ha         1 G10       0.132500
     45 H5           1.7430     2.3520     0.5720 ha         1 G10       0.132500
     46 H6           0.4250     2.4290     2.6640 ha         1 G10       0.122500
     47 H7           3.9910    -0.3400    -2.6120 h1         1 G10       0.065700
     48 H8           5.6400    -0.1710    -2.0300 h1         1 G10       0.065700
     49 H9           4.0740    -2.7820    -2.1170 hc         1 G10       0.040700
     50 H10          6.4480    -1.8420    -3.8000 hc         1 G10       0.039033
     51 H11          5.6640    -3.4340    -3.8860 hc         1 G10       0.039033
     52 H12          4.7640    -1.9790    -4.3520 hc         1 G10       0.039033
     53 H13          6.9700    -2.3020    -1.2130 hc         1 G10       0.039033
     54 H14          5.6250    -2.8050    -0.1680 hc         1 G10       0.039033
     55 H15          6.2050    -3.8910    -1.4410 hc         1 G10       0.039033
     56 H16          3.0180    -2.2090    -0.2670 h1         1 G10       0.059700
     57 H17          2.7410    -1.0160     0.9480 h1         1 G10       0.059700
     58 H18          1.7060     0.4270    -1.0280 h1         1 G10       0.101700
     59 H19          1.5080    -2.2620    -2.0450 ho         1 G10       0.437000
     60 H20          0.4620    -0.3400     0.8840 h1         1 G10       0.090700
     61 H21         -0.9990    -0.5580    -1.7130 hn         1 G10       0.333500
     62 H22         -4.1150     1.3790     0.3610 h1         1 G10       0.094700
     63 H23         -3.9090     3.8300    -0.1740 h1         1 G10       0.069200
     64 H24         -2.2280     3.2580    -0.3590 h1         1 G10       0.069200
     65 H25         -5.3510     3.7500    -2.5870 h2         1 G10       0.092700
     66 H26         -4.2710     0.4870    -4.7450 h1         1 G10       0.081700
     67 H27         -3.0350     0.8980    -3.5260 h1         1 G10       0.081700
     68 H28         -5.9280     1.9240    -1.1620 hc         1 G10       0.105700
     69 H29         -0.0560    -2.9620    -0.6000 hc         1 G10       0.051200
     70 H30          0.8980    -2.7790     0.8600 hc         1 G10       0.051200
     71 H32         -4.5240    -3.3560     0.9190 ha         1 G10       0.114000
     72 H33         -4.4360    -2.8310     3.3550 ha         1 G10       0.112000
     73 H34         -2.2910    -2.0970     4.3930 ha         1 G10       0.114000
     74 H35         -0.2400    -1.8870     3.0040 ha         1 G10       0.110000
     75 H31         -2.4780    -3.1500    -0.4750 ha         1 G10       0.110000
@<TRIPOS>BOND
     1     1     2 1   
     2     1    41 1   
     3     1    42 1   
     4     2     3 ar  
     5     2     7 ar  
     6     3     4 ar  
     7     3    43 1   
     8     4     5 ar  
     9     4    44 1   
    10     5     6 ar  
    11     5     8 1   
    12     6     7 ar  
    13     6    45 1   
    14     7    46 1   
    15     8     9 2   
    16     8    10 2   
    17     8    11 1   
    18    11    12 1   
    19    11    16 1   
    20    12    13 1   
    21    12    47 1   
    22    12    48 1   
    23    13    14 1   
    24    13    15 1   
    25    13    49 1   
    26    14    50 1   
    27    14    51 1   
    28    14    52 1   
    29    15    53 1   
    30    15    54 1   
    31    15    55 1   
    32    16    17 1   
    33    16    56 1   
    34    16    57 1   
    35    17    18 1   
    36    17    19 1   
    37    17    58 1   
    38    18    59 1   
    39    19    20 1   
    40    19    32 1   
    41    19    60 1   
    42    20    21 1   
    43    20    61 1   
    44    21    22 2   
    45    21    23 1   
    46    23    24 1   
    47    24    25 1   
    48    24    31 1   
    49    24    62 1   
    50    25    26 1   
    51    25    63 1   
    52    25    64 1   
    53    26    27 1   
    54    27    28 1   
    55    27    31 1   
    56    27    65 1   
    57    28    29 1   
    58    29    30 1   
    59    29    66 1   
    60    29    67 1   
    61    30    31 1   
    62    30    39 1   
    63    30    40 1   
    64    31    68 1   
    65    32    38 1   
    66    32    69 1   
    67    32    70 1   
    68    33    34 ar  
    69    33    38 ar  
    70    33    75 1   
    71    34    35 ar  
    72    34    71 1   
    73    35    36 ar  
    74    35    72 1   
    75    36    37 ar  
    76    36    73 1   
    77    37    38 ar  
    78    37    74 1   
@<TRIPOS>SUBSTRUCTURE
     1 G10         1 TEMP              0 ****  ****    0 ROOT
