@<TRIPOS>MOLECULE
G10
   75    78     1     0     0
SMALL
abcg2


@<TRIPOS>ATOM
      1 N1           0.2740     3.8650     1.6030 nv         1 G10      -1.091000
      2 C2           1.3390     3.0350     1.4480 ca         1 G10       0.368000
      3 C3           1.5340     1.9440     2.3090 ca         1 G10      -0.211000
      4 C4           2.5910     1.0780     2.1220 ca         1 G10       0.031000
      5 C5           3.4760     1.2750     1.0670 ca         1 G10      -0.362500
      6 C6           3.3000     2.3550     0.2040 ca         1 G10       0.031000
      7 C7           2.2520     3.2270     0.3950 ca         1 G10      -0.211000
      8 S8           4.7150     0.0850     0.7100 sy         1 G10       1.201600
      9 O9           5.8860     0.7510     0.1540 o          1 G10      -0.549000
     10 O10          4.8860    -0.7290     1.9090 o          1 G10      -0.549000
     11 N11          4.0580    -0.8160    -0.5000 n3         1 G10      -0.790500
     12 C12          4.7450    -1.0490    -1.7660 c3         1 G10       0.234800
     13 C13          5.4630    -2.3950    -1.8600 c3         1 G10      -0.081700
     14 C14          6.0200    -2.5600    -3.2700 c3         1 G10      -0.093100
     15 C15          6.5610    -2.5390    -0.8150 c3         1 G10      -0.093100
     16 C16          2.8030    -1.4980    -0.2270 c3         1 G10       0.193800
     17 C17          1.5730    -0.7390    -0.7300 c3         1 G10       0.130300
     18 O18          1.4330    -0.7890    -2.1330 oh         1 G10      -0.649000
     19 C19          0.2970    -1.1810    -0.0030 c3         1 G10       0.096700
     20 N20         -0.7940    -0.3320    -0.4100 ns         1 G10      -0.484900
     21 C21         -1.6450     0.2480     0.4540 c          1 G10       0.654100
     22 O22         -1.5520     0.2540     1.6600 o          1 G10      -0.538000
     23 O23         -2.6370     0.8570    -0.2230 os         1 G10      -0.459100
     24 C24         -3.6440     1.5150     0.5290 c5         1 G10       0.175300
     25 C25         -3.2620     2.9660     0.7680 c5         1 G10       0.129600
     26 O26         -3.5340     3.6150    -0.4620 os         1 G10      -0.451000
     27 C27         -4.6840     3.0520    -1.0280 c5         1 G10       0.384300
     28 O28         -4.5050     2.8080    -2.3960 os         1 G10      -0.432000
     29 C29         -4.3390     1.4260    -2.6470 c5         1 G10       0.113600
     30 C30         -5.1010     0.7600    -1.5120 c5         1 G10       0.172000
     31 C31         -4.8970     1.6930    -0.3330 c5         1 G10      -0.199700
     32 C32         -0.0560    -2.6630    -0.2160 c3         1 G10      -0.054100
     33 C33         -2.5450    -2.9220     0.0800 ca         1 G10      -0.100500
     34 C34         -3.6550    -3.2210     0.8590 ca         1 G10      -0.105500
     35 C35         -3.4920    -3.6720     2.1620 ca         1 G10      -0.106000
     36 C36         -2.2120    -3.8200     2.6800 ca         1 G10      -0.105500
     37 C37         -1.1060    -3.5120     1.9000 ca         1 G10      -0.100500
     38 C38         -1.2580    -3.0580     0.5920 ca         1 G10      -0.088300
     39 F39         -4.7470    -0.5260    -1.3000 f          1 G10      -0.105000
     40 F40         -6.4340     0.7310    -1.8170 f          1 G10      -0.105000
     41 H1           0.2960     4.7590     1.1410 hn         1 G10       0.472000
     42 H2          -0.1930     3.8750     2.4940 hn         1 G10       0.472000
     43 H3           0.8450     1.7790     3.1270 ha         1 G10       0.122500
     44 H4           2.7150     0.2450     2.8000 ha         1 G10       0.132500
     45 H5           3.9790     2.5150    -0.6240 ha         1 G10       0.132500
     46 H6           2.1280     4.0680    -0.2760 ha         1 G10       0.122500
     47 H7           4.0000    -0.9720    -2.5600 h1         1 G10       0.065700
     48 H8           5.4580    -0.2420    -1.9360 h1         1 G10       0.065700
     49 H9           4.7260    -3.1910    -1.7000 hc         1 G10       0.040700
     50 H10          6.7780    -1.8020    -3.4850 hc         1 G10       0.039033
     51 H11          6.4890    -3.5370    -3.3920 hc         1 G10       0.039033
     52 H12          5.2370    -2.4700    -4.0250 hc         1 G10       0.039033
     53 H13          7.3110    -1.7520    -0.9250 hc         1 G10       0.039033
     54 H14          6.1690    -2.4890     0.2010 hc         1 G10       0.039033
     55 H15          7.0690    -3.4990    -0.9180 hc         1 G10       0.039033
     56 H16          2.8540    -2.4960    -0.6730 h1         1 G10       0.059700
     57 H17          2.7070    -1.6790     0.8460 h1         1 G10       0.059700
     58 H18          1.7040     0.3190    -0.4920 h1         1 G10       0.101700
     59 H19          1.4180    -1.7080    -2.4210 ho         1 G10       0.437000
     60 H20          0.4600    -1.0080     1.0620 h1         1 G10       0.090700
     61 H21         -1.0150    -0.2990    -1.3940 hn         1 G10       0.333500
     62 H22         -3.8600     0.9780     1.4510 h1         1 G10       0.094700
     63 H23         -3.8690     3.3780     1.5830 h1         1 G10       0.069200
     64 H24         -2.2100     3.1050     1.0180 h1         1 G10       0.069200
     65 H25         -5.5280     3.7400    -0.9240 h2         1 G10       0.092700
     66 H26         -4.7590     1.1870    -3.6250 h1         1 G10       0.081700
     67 H27         -3.2890     1.1230    -2.6370 h1         1 G10       0.081700
     68 H28         -5.7700     1.6980     0.3210 hc         1 G10       0.105700
     69 H29         -0.2420    -2.8490    -1.2780 hc         1 G10       0.051200
     70 H30          0.7980    -3.2830     0.0680 hc         1 G10       0.051200
     71 H32         -4.6490    -3.1030     0.4470 ha         1 G10       0.114000
     72 H33         -4.3570    -3.9090     2.7680 ha         1 G10       0.112000
     73 H34         -2.0730    -4.1770     3.6930 ha         1 G10       0.114000
     74 H35         -0.1110    -3.6270     2.3130 ha         1 G10       0.110000
     75 H31         -2.6850    -2.5790    -0.9390 ha         1 G10       0.110000
@<TRIPOS>BOND
     1     1     2 1   
     2     1    41 1   
     3     1    42 1   
     4     2     3 ar  
     5     2     7 ar  
     6     3     4 ar  
     7     3    43 1   
     8     4     5 ar  
     9     4    44 1   
    10     5     6 ar  
    11     5     8 1   
    12     6     7 ar  
    13     6    45 1   
    14     7    46 1   
    15     8     9 2   
    16     8    10 2   
    17     8    11 1   
    18    11    12 1   
    19    11    16 1   
    20    12    13 1   
    21    12    47 1   
    22    12    48 1   
    23    13    14 1   
    24    13    15 1   
    25    13    49 1   
    26    14    50 1   
    27    14    51 1   
    28    14    52 1   
    29    15    53 1   
    30    15    54 1   
    31    15    55 1   
    32    16    17 1   
    33    16    56 1   
    34    16    57 1   
    35    17    18 1   
    36    17    19 1   
    37    17    58 1   
    38    18    59 1   
    39    19    20 1   
    40    19    32 1   
    41    19    60 1   
    42    20    21 1   
    43    20    61 1   
    44    21    22 2   
    45    21    23 1   
    46    23    24 1   
    47    24    25 1   
    48    24    31 1   
    49    24    62 1   
    50    25    26 1   
    51    25    63 1   
    52    25    64 1   
    53    26    27 1   
    54    27    28 1   
    55    27    31 1   
    56    27    65 1   
    57    28    29 1   
    58    29    30 1   
    59    29    66 1   
    60    29    67 1   
    61    30    31 1   
    62    30    39 1   
    63    30    40 1   
    64    31    68 1   
    65    32    38 1   
    66    32    69 1   
    67    32    70 1   
    68    33    34 ar  
    69    33    38 ar  
    70    33    75 1   
    71    34    35 ar  
    72    34    71 1   
    73    35    36 ar  
    74    35    72 1   
    75    36    37 ar  
    76    36    73 1   
    77    37    38 ar  
    78    37    74 1   
@<TRIPOS>SUBSTRUCTURE
     1 G10         1 TEMP              0 ****  ****    0 ROOT
