@<TRIPOS>MOLECULE
G11
   49    52     1     0     0
SMALL
No Charge or Current Charge


@<TRIPOS>ATOM
      1 C1          -1.1660     0.8660     0.2540 cp         1 G11      -0.160500
      2 C2           0.2300     0.3790     0.5010 cp         1 G11       0.420500
      3 C3          -2.1910    -0.0900     0.0310 ca         1 G11      -0.040000
      4 C4          -1.5180     2.2470     0.2470 ca         1 G11      -0.009300
      5 C5           0.4910    -0.6550     1.4270 ca         1 G11      -0.158000
      6 N6           1.2240     0.9260    -0.2330 nb         1 G11      -0.674000
      7 C7          -3.5290     0.2850    -0.2140 ca         1 G11      -0.161600
      8 C8          -2.8520     2.6230     0.0010 ca         1 G11      -0.132000
      9 C9          -0.5060     3.3540     0.5320 c3         1 G11      -0.049800
     10 C10          2.4900     0.4880    -0.0590 ca         1 G11       0.359900
     11 C11          1.8040    -1.1140     1.6130 ca         1 G11      -0.022000
     12 C12         -4.5710    -0.7910    -0.4530 c          1 G11       0.615700
     13 C13         -3.8470     1.6610    -0.2290 ca         1 G11      -0.073000
     14 C14          2.8360    -0.5280     0.8520 ca         1 G11      -0.203600
     15 N15         -5.8600    -0.3620    -0.6960 ns         1 G11      -0.481900
     16 O16         -4.2940    -1.9830    -0.4310 o          1 G11      -0.592100
     17 C17          4.2580    -0.9880     1.0170 c          1 G11       0.617700
     18 C18         -6.9770    -1.2340    -0.9380 cx         1 G11       0.044700
     19 N19          5.2120    -0.3690     0.2400 ns         1 G11      -0.502900
     20 O20          4.5620    -1.8730     1.8040 o          1 G11      -0.601100
     21 C21         -7.8930    -1.5370     0.2210 cx         1 G11      -0.131900
     22 C22         -8.3590    -0.6300    -0.8920 cx         1 G11      -0.131900
     23 C23          6.6330    -0.6990     0.2690 c3         1 G11       0.135000
     24 C24          7.4050     0.2280    -0.6580 cx         1 G11      -0.156700
     25 C25          7.4630    -0.0330    -2.1470 cx         1 G11      -0.125400
     26 C26          8.7000    -0.2190    -1.2980 cx         1 G11      -0.125400
     27 H3          -1.9280    -1.1470     0.0340 ha         1 G11       0.138000
     28 H5          -0.3240    -1.0860     2.0010 ha         1 G11       0.137000
     29 H8          -3.1260     3.6750    -0.0080 ha         1 G11       0.116000
     30 H9           0.1130     3.5570    -0.3490 hc         1 G11       0.049700
     31 H9A         -0.9990     4.2940     0.8100 hc         1 G11       0.049700
     32 H9B          0.1590     3.0850     1.3620 hc         1 G11       0.049700
     33 H10          3.2380     0.9780    -0.6790 h4         1 G11       0.016100
     34 H11          2.0100    -1.9060     2.3310 ha         1 G11       0.144000
     35 H13         -4.8610     2.0070    -0.4120 ha         1 G11       0.113000
     36 HN15        -6.0060     0.6390    -0.7040 hn         1 G11       0.318500
     37 H18         -6.7860    -2.0240    -1.6670 h1         1 G11       0.085700
     38 HN19         4.9040     0.3520    -0.3970 hn         1 G11       0.317500
     39 H21         -8.3210    -2.5350     0.2770 hc         1 G11       0.077700
     40 H21A        -7.6650    -1.0850     1.1840 hc         1 G11       0.077700
     41 H22         -8.4500     0.4320    -0.6750 hc         1 G11       0.077700
     42 H22A        -9.1010    -1.0180    -1.5840 hc         1 G11       0.077700
     43 H23          7.0100    -0.5930     1.2950 h1         1 G11       0.056200
     44 H23A         6.7640    -1.7450    -0.0420 h1         1 G11       0.056200
     45 H24          7.3530     1.2680    -0.3440 hc         1 G11       0.083700
     46 H25          6.9740    -0.9260    -2.5300 hc         1 G11       0.074450
     47 H25A         7.4300     0.8250    -2.8140 hc         1 G11       0.074450
     48 H26          9.4970     0.5140    -1.3960 hc         1 G11       0.074450
     49 H26A         9.0390    -1.2360    -1.1160 hc         1 G11       0.074450
@<TRIPOS>BOND
     1     1     2 1   
     2     1     3 ar  
     3     1     4 ar  
     4     2     5 ar  
     5     2     6 ar  
     6     3     7 ar  
     7     3    27 1   
     8     4     8 ar  
     9     4     9 1   
    10     5    11 ar  
    11     5    28 1   
    12     6    10 ar  
    13     7    12 1   
    14     7    13 ar  
    15     8    13 ar  
    16     8    29 1   
    17     9    30 1   
    18     9    31 1   
    19     9    32 1   
    20    10    14 ar  
    21    10    33 1   
    22    11    14 ar  
    23    11    34 1   
    24    12    15 1   
    25    12    16 2   
    26    13    35 1   
    27    14    17 1   
    28    15    18 1   
    29    15    36 1   
    30    17    19 1   
    31    17    20 2   
    32    18    21 1   
    33    18    22 1   
    34    18    37 1   
    35    19    23 1   
    36    19    38 1   
    37    21    22 1   
    38    21    39 1   
    39    21    40 1   
    40    22    41 1   
    41    22    42 1   
    42    23    24 1   
    43    23    43 1   
    44    23    44 1   
    45    24    25 1   
    46    24    26 1   
    47    24    45 1   
    48    25    26 1   
    49    25    46 1   
    50    25    47 1   
    51    26    48 1   
    52    26    49 1   
@<TRIPOS>SUBSTRUCTURE
     1 G11         1 TEMP              0 ****  ****    0 ROOT
