@<TRIPOS>MOLECULE
G11
   49    52     1     0     0
SMALL
abcg2


@<TRIPOS>ATOM
      1 C1          -1.1840     0.7980     0.1000 cp         1 G11      -0.160500
      2 C2           0.1810     0.2470     0.2550 cp         1 G11       0.420500
      3 C3          -2.2550    -0.0890     0.1180 ca         1 G11      -0.040000
      4 C4          -1.4200     2.1740    -0.0560 ca         1 G11      -0.009300
      5 C5           0.4570    -0.7030     1.2380 ca         1 G11      -0.158000
      6 N6           1.1170     0.6720    -0.5890 nb         1 G11      -0.674000
      7 C7          -3.5650     0.3440    -0.0530 ca         1 G11      -0.161600
      8 C8          -2.7380     2.5980    -0.2000 ca         1 G11      -0.132000
      9 C9          -0.3230     3.1980    -0.0400 c3         1 G11      -0.049800
     10 C10          2.3450     0.1900    -0.4790 ca         1 G11       0.359900
     11 C11          1.7370    -1.2120     1.3390 ca         1 G11      -0.022000
     12 C12         -4.6570    -0.6750    -0.0230 c          1 G11       0.615700
     13 C13         -3.7990     1.7070    -0.2080 ca         1 G11      -0.073000
     14 C14          2.7230    -0.7500     0.4740 ca         1 G11      -0.203600
     15 N15         -5.7960    -0.3380    -0.6590 ns         1 G11      -0.481900
     16 O16         -4.5110    -1.7450     0.5480 o          1 G11      -0.592100
     17 C17          4.1060    -1.3070     0.5830 c          1 G11       0.617700
     18 C18         -6.9190    -1.2130    -0.7090 cx         1 G11       0.044700
     19 N19          5.0960    -0.5280     0.1310 ns         1 G11      -0.502900
     20 O20          4.2970    -2.4120     1.0730 o          1 G11      -0.601100
     21 C21         -7.7500    -1.3930     0.5200 cx         1 G11      -0.131900
     22 C22         -8.2790    -0.5990    -0.6330 cx         1 G11      -0.131900
     23 C23          6.4890    -0.9360     0.1350 c3         1 G11       0.135000
     24 C24          7.3670     0.2490    -0.1520 cx         1 G11      -0.156700
     25 C25          7.5060     0.7370    -1.5640 cx         1 G11      -0.125400
     26 C26          8.6540     0.0510    -0.8870 cx         1 G11      -0.125400
     27 H3          -2.0650    -1.1470     0.2410 ha         1 G11       0.138000
     28 H5          -0.3170    -1.0290     1.9190 ha         1 G11       0.137000
     29 H8          -2.9420     3.6570    -0.2960 ha         1 G11       0.116000
     30 H9           0.2340     3.1990    -0.9760 hc         1 G11       0.049700
     31 H9A         -0.7370     4.1950     0.1040 hc         1 G11       0.049700
     32 H9B          0.3970     3.0140     0.7570 hc         1 G11       0.049700
     33 H10          3.0540     0.5610    -1.2120 h4         1 G11       0.016100
     34 H11          1.9700    -1.9520     2.0930 ha         1 G11       0.144000
     35 H13         -4.8050     2.0950    -0.3050 ha         1 G11       0.113000
     36 HN15        -5.7960     0.4600    -1.2730 hn         1 G11       0.318500
     37 H18         -6.8070    -2.0770    -1.3580 h1         1 G11       0.085700
     38 HN19         4.8900     0.3960    -0.2110 hn         1 G11       0.317500
     39 H21         -8.1610    -2.3760     0.7090 hc         1 G11       0.077700
     40 H21A        -7.4510    -0.8520     1.4090 hc         1 G11       0.077700
     41 H22         -8.3400     0.4770    -0.5190 hc         1 G11       0.077700
     42 H22A        -9.0570    -1.0290    -1.2500 hc         1 G11       0.077700
     43 H23          6.7400    -1.3660     1.1060 h1         1 G11       0.056200
     44 H23A         6.6550    -1.7180    -0.6140 h1         1 G11       0.056200
     45 H24          7.3670     1.0090     0.6220 hc         1 G11       0.083700
     46 H25          6.9800     0.1950    -2.3410 hc         1 G11       0.074450
     47 H25A         7.5710     1.8040    -1.7310 hc         1 G11       0.074450
     48 H26          9.5050     0.6490    -0.5900 hc         1 G11       0.074450
     49 H26A         8.9060    -0.9520    -1.2080 hc         1 G11       0.074450
@<TRIPOS>BOND
     1     1     2 1   
     2     1     3 ar  
     3     1     4 ar  
     4     2     5 ar  
     5     2     6 ar  
     6     3     7 ar  
     7     3    27 1   
     8     4     8 ar  
     9     4     9 1   
    10     5    11 ar  
    11     5    28 1   
    12     6    10 ar  
    13     7    12 1   
    14     7    13 ar  
    15     8    13 ar  
    16     8    29 1   
    17     9    30 1   
    18     9    31 1   
    19     9    32 1   
    20    10    14 ar  
    21    10    33 1   
    22    11    14 ar  
    23    11    34 1   
    24    12    15 1   
    25    12    16 2   
    26    13    35 1   
    27    14    17 1   
    28    15    18 1   
    29    15    36 1   
    30    17    19 1   
    31    17    20 2   
    32    18    21 1   
    33    18    22 1   
    34    18    37 1   
    35    19    23 1   
    36    19    38 1   
    37    21    22 1   
    38    21    39 1   
    39    21    40 1   
    40    22    41 1   
    41    22    42 1   
    42    23    24 1   
    43    23    43 1   
    44    23    44 1   
    45    24    25 1   
    46    24    26 1   
    47    24    45 1   
    48    25    26 1   
    49    25    46 1   
    50    25    47 1   
    51    26    48 1   
    52    26    49 1   
@<TRIPOS>SUBSTRUCTURE
     1 G11         1 TEMP              0 ****  ****    0 ROOT
