@<TRIPOS>MOLECULE
G12
   21    22     1     0     0
SMALL
abcg2


@<TRIPOS>ATOM
      1 BR2         -3.8250    -0.5110     0.0480 br         1 G12      -0.027700
      2 C9          -2.0010    -0.0770    -0.0080 cc         1 G12      -0.213500
      3 C8          -1.1280    -1.2390    -0.0500 c          1 G12       0.686300
      4 O15         -1.4720    -2.3890    -0.0590 o          1 G12      -0.448000
      5 O7           0.2030    -0.9860    -0.0790 os         1 G12      -0.319200
      6 C10         -1.5300     1.1940    -0.0110 cd         1 G12       0.090600
      7 C13         -2.3850     2.4150     0.0300 c3         1 G12      -0.074900
      8 C5          -0.0950     1.3760    -0.0510 ca         1 G12      -0.202800
      9 C6           0.7250     0.2520    -0.0820 ca         1 G12       0.246100
     10 C4           2.1120     0.3540    -0.1160 ca         1 G12      -0.172900
     11 BR1          3.1530    -1.2070    -0.1570 br         1 G12      -0.050100
     12 C1           0.5290     2.6310    -0.0580 ca         1 G12      -0.002000
     13 C2           1.8950     2.7500    -0.0920 ca         1 G12      -0.179000
     14 C3           2.7130     1.6120    -0.1210 ca         1 G12       0.233100
     15 O11          4.0260     1.8180    -0.1510 oh         1 G12      -0.515100
     16 H131        -3.4470     2.1970     0.0470 hc         1 G12       0.063367
     17 H132        -2.1500     3.0080     0.9140 hc         1 G12       0.063367
     18 H133        -2.1850     3.0440    -0.8390 hc         1 G12       0.063367
     19 H1          -0.0700     3.5300    -0.0350 ha         1 G12       0.126000
     20 H2           2.3610     3.7260    -0.0970 ha         1 G12       0.141000
     21 HO11         4.5370     0.9980    -0.1640 ho         1 G12       0.491000
@<TRIPOS>BOND
     1     1     2 1   
     2     2     3 1   
     3     2     6 2   
     4     3     4 2   
     5     3     5 1   
     6     5     9 1   
     7     6     7 1   
     8     6     8 1   
     9     7    16 1   
    10     7    17 1   
    11     7    18 1   
    12     8     9 ar  
    13     8    12 ar  
    14     9    10 ar  
    15    10    11 1   
    16    10    14 ar  
    17    12    13 ar  
    18    12    19 1   
    19    13    14 ar  
    20    13    20 1   
    21    14    15 1   
    22    15    21 1   
@<TRIPOS>SUBSTRUCTURE
     1 G12         1 TEMP              0 ****  ****    0 ROOT
