@<TRIPOS>MOLECULE
G12
   21    22     1     0     0
SMALL
No Charge or Current Charge


@<TRIPOS>ATOM
      1 Br2         -3.8820    -0.5230     0.0370 br         1 G12      -0.027700
      2 C9          -2.0280    -0.0860    -0.0090 cc         1 G12      -0.213500
      3 C8          -1.1240    -1.2650    -0.0460 c          1 G12       0.686300
      4 O15         -1.5360    -2.4180    -0.0470 o          1 G12      -0.448000
      5 O7           0.2160    -1.0090    -0.0800 os         1 G12      -0.319200
      6 C10         -1.5290     1.2070    -0.0090 cd         1 G12       0.090600
      7 C13         -2.4340     2.4240     0.0280 c3         1 G12      -0.074900
      8 C5          -0.0650     1.3800    -0.0470 ca         1 G12      -0.202800
      9 C6           0.7640     0.2430    -0.0820 ca         1 G12       0.246100
     10 C4           2.1650     0.3690    -0.1190 ca         1 G12      -0.172900
     11 Br1          3.2710    -1.2070    -0.1650 br         1 G12      -0.050100
     12 C1           0.5380     2.6600    -0.0500 ca         1 G12      -0.002000
     13 C2           1.9360     2.7840    -0.0870 ca         1 G12      -0.179000
     14 C3           2.7480     1.6460    -0.1210 ca         1 G12       0.233100
     15 O11          4.1010     1.7910    -0.1560 oh         1 G12      -0.515100
     16 H131        -3.5000     2.1840     0.0550 hc         1 G12       0.063367
     17 H132        -2.2260     3.0340     0.9150 hc         1 G12       0.063367
     18 H133        -2.2750     3.0520    -0.8560 hc         1 G12       0.063367
     19 H1          -0.0600     3.5670    -0.0250 ha         1 G12       0.126000
     20 H2           2.3910     3.7710    -0.0890 ha         1 G12       0.141000
     21 HO11         4.4940     0.8920    -0.1760 ho         1 G12       0.491000
@<TRIPOS>BOND
     1     1     2 1   
     2     2     3 1   
     3     2     6 2   
     4     3     4 2   
     5     3     5 1   
     6     5     9 1   
     7     6     7 1   
     8     6     8 1   
     9     7    16 1   
    10     7    17 1   
    11     7    18 1   
    12     8     9 ar  
    13     8    12 ar  
    14     9    10 ar  
    15    10    11 1   
    16    10    14 ar  
    17    12    13 ar  
    18    12    19 1   
    19    13    14 ar  
    20    13    20 1   
    21    14    15 1   
    22    15    21 1   
@<TRIPOS>SUBSTRUCTURE
     1 G12         1 TEMP              0 ****  ****    0 ROOT
