@<TRIPOS>MOLECULE
G13
   73    76     1     0     0
SMALL
abcg2


@<TRIPOS>ATOM
      1 O25         75.4070    61.0210    16.0380 o          1 G13      -0.596100
      2 C24         75.7220    62.1170    16.4830 c          1 G13       0.612700
      3 C26         75.0730    62.6960    17.7030 ca         1 G13      -0.133600
      4 C27         75.8740    63.1540    18.7200 ca         1 G13      -0.085000
      5 C28         75.3230    63.6310    19.9240 ca         1 G13      -0.119000
      6 C29         73.9680    63.6540    20.0900 ca         1 G13      -0.079000
      7 C30         73.1060    63.2050    19.0630 ca         1 G13      -0.045000
      8 C32         71.7020    63.2480    19.2290 ca         1 G13      -0.102000
      9 C31         73.6540    62.7090    17.8480 ca         1 G13       0.001000
     10 C35         72.7580    62.2910    16.8330 ca         1 G13      -0.089000
     11 C34         71.4040    62.3520    17.0220 ca         1 G13      -0.107000
     12 C33         70.8650    62.8290    18.2330 ca         1 G13      -0.104000
     13 N23         76.6920    62.8750    15.9480 ns         1 G13      -0.500900
     14 C20         77.4920    62.4460    14.8170 c5         1 G13       0.108700
     15 C16         78.7900    63.2650    14.7980 c5         1 G13       0.089700
     16 C17         78.4410    64.5770    14.0630 c5         1 G13      -0.087700
     17 C22         77.1160    64.2970    13.3160 c5         1 G13      -0.076400
     18 C21         76.8430    62.7990    13.4790 c5         1 G13      -0.097400
     19 C18         79.6440    64.8250    13.1580 c5         1 G13      -0.088400
     20 C19         80.0850    63.4270    12.7560 c5         1 G13       0.104000
     21 N15         79.8120    62.6430    13.9580 n          1 G13      -0.405800
     22 C13         80.4650    61.5560    14.4040 c          1 G13       0.595100
     23 O14         80.2370    61.0810    15.5100 o          1 G13      -0.612100
     24 C8          81.5080    60.8920    13.5050 c3         1 G13       0.041700
     25 C9          80.9380    59.6850    12.7040 c3         1 G13      -0.048000
     26 C12         79.8870    60.1860    11.7110 c3         1 G13      -0.087433
     27 C11         80.3050    58.6250    13.6050 c3         1 G13      -0.087433
     28 C10         82.0900    59.0510    11.9180 c3         1 G13      -0.087433
     29 N7          82.6230    60.5100    14.3370 ns         1 G13      -0.489900
     30 C5          83.8670    60.9970    14.1940 c          1 G13       0.561100
     31 O6          84.1910    61.7940    13.3250 o          1 G13      -0.621100
     32 C3          84.8790    60.5060    15.2360 c3         1 G13       0.102500
     33 C4          84.9800    61.5520    16.3420 c3         1 G13      -0.088100
     34 N2          86.1800    60.2410    14.6710 n7         1 G13      -0.850400
     35 C1          86.1920    59.1710    13.6930 c3         1 G13       0.143100
     36 H27         76.9510    63.1280    18.6130 ha         1 G13       0.118000
     37 H28         75.9790    63.9720    20.7130 ha         1 G13       0.117000
     38 H29         73.5340    64.0200    21.0130 ha         1 G13       0.115000
     39 H32         71.3000    63.6280    20.1610 ha         1 G13       0.113000
     40 H35         73.1390    61.9170    15.8940 ha         1 G13       0.132000
     41 H34         70.7390    62.0290    16.2310 ha         1 G13       0.114000
     42 H33         69.7920    62.8670    18.3690 ha         1 G13       0.114000
     43 HN23        76.8320    63.8010    16.3220 hn         1 G13       0.315500
     44 H20         77.6790    61.3790    14.9240 h1         1 G13       0.101700
     45 H16         79.1840    63.4250    15.8050 h1         1 G13       0.079700
     46 H17         78.3160    65.3990    14.7700 hc         1 G13       0.062700
     47 H22         76.3070    64.8780    13.7610 hc         1 G13       0.046700
     48 H22A        77.1730    64.5940    12.2680 hc         1 G13       0.046700
     49 H21         77.3280    62.2260    12.6840 hc         1 G13       0.058700
     50 H21A        75.7830    62.5470    13.4510 hc         1 G13       0.058700
     51 H18         79.4050    65.4470    12.2960 hc         1 G13       0.058700
     52 H18A        80.4420    65.3160    13.7180 hc         1 G13       0.058700
     53 H19         79.5070    63.0540    11.9060 h1         1 G13       0.054700
     54 H19A        81.1380    63.3910    12.4820 h1         1 G13       0.054700
     55 H8          81.9050    61.5920    12.7720 h1         1 G13       0.089700
     56 H12         79.0280    60.6380    12.2110 hc         1 G13       0.039256
     57 H12A        80.3040    60.9190    11.0190 hc         1 G13       0.039256
     58 H12B        79.5100    59.3500    11.1190 hc         1 G13       0.039256
     59 H11         80.0230    57.7590    13.0040 hc         1 G13       0.039256
     60 H11A        80.9900    58.2670    14.3770 hc         1 G13       0.039256
     61 H11B        79.4030    58.9840    14.1000 hc         1 G13       0.039256
     62 H10         81.6980    58.3100    11.2210 hc         1 G13       0.039256
     63 H10A        82.6430    59.7950    11.3410 hc         1 G13       0.039256
     64 H10B        82.7980    58.5430    12.5730 hc         1 G13       0.039256
     65 HN7         82.4400    59.8880    15.1090 hn         1 G13       0.331500
     66 H3          84.5110    59.5720    15.6760 h1         1 G13       0.064700
     67 H4          85.6550    61.2060    17.1240 hc         1 G13       0.048033
     68 H4A         85.3610    62.4980    15.9540 hc         1 G13       0.048033
     69 H4B         84.0060    61.7420    16.7950 hc         1 G13       0.048033
     70 HN2         86.5360    61.0900    14.2480 hn         1 G13       0.429000
     71 H1          85.5070    59.3110    12.8460 h1         1 G13       0.032700
     72 H1A         87.1970    59.0630    13.2860 h1         1 G13       0.032700
     73 H1B         85.9320    58.2260    14.1740 h1         1 G13       0.032700
@<TRIPOS>BOND
     1     1     2 2   
     2     2     3 1   
     3     2    13 1   
     4     3     4 ar  
     5     3     9 ar  
     6     4     5 ar  
     7     4    36 1   
     8     5     6 ar  
     9     5    37 1   
    10     6     7 ar  
    11     6    38 1   
    12     7     8 ar  
    13     7     9 ar  
    14     8    12 ar  
    15     8    39 1   
    16     9    10 ar  
    17    10    11 ar  
    18    10    40 1   
    19    11    12 ar  
    20    11    41 1   
    21    12    42 1   
    22    13    14 1   
    23    13    43 1   
    24    14    15 1   
    25    14    18 1   
    26    14    44 1   
    27    15    16 1   
    28    15    21 1   
    29    15    45 1   
    30    16    17 1   
    31    16    19 1   
    32    16    46 1   
    33    17    18 1   
    34    17    47 1   
    35    17    48 1   
    36    18    49 1   
    37    18    50 1   
    38    19    20 1   
    39    19    51 1   
    40    19    52 1   
    41    20    21 1   
    42    20    53 1   
    43    20    54 1   
    44    21    22 1   
    45    22    23 2   
    46    22    24 1   
    47    24    25 1   
    48    24    29 1   
    49    24    55 1   
    50    25    26 1   
    51    25    27 1   
    52    25    28 1   
    53    26    56 1   
    54    26    57 1   
    55    26    58 1   
    56    27    59 1   
    57    27    60 1   
    58    27    61 1   
    59    28    62 1   
    60    28    63 1   
    61    28    64 1   
    62    29    30 1   
    63    29    65 1   
    64    30    31 2   
    65    30    32 1   
    66    32    33 1   
    67    32    34 1   
    68    32    66 1   
    69    33    67 1   
    70    33    68 1   
    71    33    69 1   
    72    34    35 1   
    73    34    70 1   
    74    35    71 1   
    75    35    72 1   
    76    35    73 1   
@<TRIPOS>SUBSTRUCTURE
     1 G13         1 TEMP              0 ****  ****    0 ROOT
