@<TRIPOS>MOLECULE
G13
   73    76     1     0     0
SMALL
No Charge or Current Charge


@<TRIPOS>ATOM
      1 O25         75.5410    61.0580    16.2020 o          1 G13      -0.596100
      2 C24         75.6540    62.2180    16.5750 c          1 G13       0.612700
      3 C26         74.7600    62.8430    17.6280 ca         1 G13      -0.133600
      4 C27         75.3530    63.7050    18.5830 ca         1 G13      -0.085000
      5 C28         74.5930    64.2820    19.6090 ca         1 G13      -0.119000
      6 C29         73.2240    64.0120    19.7050 ca         1 G13      -0.079000
      7 C30         72.6040    63.1720    18.7650 ca         1 G13      -0.045000
      8 C32         71.2210    62.9320    18.8770 ca         1 G13      -0.102000
      9 C31         73.3580    62.5840    17.7140 ca         1 G13       0.001000
     10 C35         72.6700    61.7860    16.7660 ca         1 G13      -0.089000
     11 C34         71.2890    61.5540    16.8840 ca         1 G13      -0.107000
     12 C33         70.5640    62.1200    17.9410 ca         1 G13      -0.104000
     13 N23         76.6770    63.0340    16.1270 ns         1 G13      -0.500900
     14 C20         77.5990    62.5180    15.0980 c5         1 G13       0.108700
     15 C16         78.8680    63.4260    15.1790 c5         1 G13       0.089700
     16 C17         78.4270    64.7570    14.4930 c5         1 G13      -0.087700
     17 C22         77.1490    64.4350    13.6340 c5         1 G13      -0.076400
     18 C21         76.9650    62.8910    13.7240 c5         1 G13      -0.097400
     19 C18         79.6290    65.0880    13.5600 c5         1 G13      -0.088400
     20 C19         80.1240    63.7050    13.0660 c5         1 G13       0.104000
     21 N15         79.8750    62.8440    14.2480 n          1 G13      -0.405800
     22 C13         80.7330    61.7910    14.6530 c          1 G13       0.595100
     23 O14         80.6940    61.3970    15.8150 o          1 G13      -0.612100
     24 C8          81.6900    61.1050    13.6130 c3         1 G13       0.041700
     25 C9          81.0320    59.9090    12.8210 c3         1 G13      -0.048000
     26 C12         79.7100    60.3480    12.1370 c3         1 G13      -0.087433
     27 C11         80.7160    58.7150    13.7660 c3         1 G13      -0.087433
     28 C10         81.9960    59.4180    11.7060 c3         1 G13      -0.087433
     29 N7          82.9220    60.6830    14.3260 ns         1 G13      -0.489900
     30 C5          84.2150    60.8920    13.8900 c          1 G13       0.561100
     31 O6          84.4580    61.4390    12.8200 o          1 G13      -0.621100
     32 C3          85.3380    60.3750    14.8580 c3         1 G13       0.102500
     33 C4          86.1730    61.5510    15.4060 c3         1 G13      -0.088100
     34 N2          86.2650    59.3760    14.2390 n7         1 G13      -0.850400
     35 C1          85.6600    58.0790    13.8730 c3         1 G13       0.143100
     36 H27         76.4210    63.9100    18.5580 ha         1 G13       0.118000
     37 H28         75.0700    64.9320    20.3400 ha         1 G13       0.117000
     38 H29         72.6440    64.4610    20.5080 ha         1 G13       0.115000
     39 H32         70.6500    63.3800    19.6880 ha         1 G13       0.113000
     40 H35         73.1780    61.3450    15.9160 ha         1 G13       0.132000
     41 H34         70.7780    60.9360    16.1480 ha         1 G13       0.114000
     42 H33         69.4950    61.9390    18.0300 ha         1 G13       0.114000
     43 HN23        76.6950    63.9840    16.4750 hn         1 G13       0.315500
     44 H20         77.8290    61.4480    15.2060 h1         1 G13       0.101700
     45 H16         79.2640    63.5610    16.1950 h1         1 G13       0.079700
     46 H17         78.2320    65.5590    15.2140 hc         1 G13       0.062700
     47 H22         76.2750    64.9450    14.0570 hc         1 G13       0.046700
     48 H22A        77.2220    64.7750    12.5940 hc         1 G13       0.046700
     49 H21         77.4840    62.3920    12.9000 hc         1 G13       0.058700
     50 H21A        75.9140    62.5920    13.6470 hc         1 G13       0.058700
     51 H18         79.3720    65.7630    12.7360 hc         1 G13       0.058700
     52 H18A        80.4220    65.5840    14.1330 hc         1 G13       0.058700
     53 H19         79.5440    63.3610    12.2010 h1         1 G13       0.054700
     54 H19A        81.1810    63.7580    12.7800 h1         1 G13       0.054700
     55 H8          81.9760    61.8670    12.8830 h1         1 G13       0.089700
     56 H12         78.9500    60.6130    12.8790 hc         1 G13       0.039256
     57 H12A        79.8740    61.2060    11.4750 hc         1 G13       0.039256
     58 H12B        79.2960    59.5350    11.5280 hc         1 G13       0.039256
     59 H11         80.2550    57.8890    13.2090 hc         1 G13       0.039256
     60 H11A        81.6260    58.3240    14.2380 hc         1 G13       0.039256
     61 H11B        80.0190    59.0080    14.5600 hc         1 G13       0.039256
     62 H10         81.5320    58.6280    11.1030 hc         1 G13       0.039256
     63 H10A        82.2670    60.2400    11.0310 hc         1 G13       0.039256
     64 H10B        82.9200    59.0070    12.1270 hc         1 G13       0.039256
     65 HN7         82.8110    60.2450    15.2350 hn         1 G13       0.331500
     66 H3          84.8330    59.9130    15.7180 h1         1 G13       0.064700
     67 H4          86.9140    61.1960    16.1320 hc         1 G13       0.048033
     68 H4A         86.7030    62.0690    14.5970 hc         1 G13       0.048033
     69 H4B         85.5250    62.2780    15.9100 hc         1 G13       0.048033
     70 HN2         86.6610    59.7970    13.3860 hn         1 G13       0.429000
     71 H1          84.8750    58.2070    13.1160 h1         1 G13       0.032700
     72 H1A         86.4200    57.4020    13.4610 h1         1 G13       0.032700
     73 H1B         85.2130    57.5940    14.7520 h1         1 G13       0.032700
@<TRIPOS>BOND
     1     1     2 2   
     2     2     3 1   
     3     2    13 1   
     4     3     4 ar  
     5     3     9 ar  
     6     4     5 ar  
     7     4    36 1   
     8     5     6 ar  
     9     5    37 1   
    10     6     7 ar  
    11     6    38 1   
    12     7     8 ar  
    13     7     9 ar  
    14     8    12 ar  
    15     8    39 1   
    16     9    10 ar  
    17    10    11 ar  
    18    10    40 1   
    19    11    12 ar  
    20    11    41 1   
    21    12    42 1   
    22    13    14 1   
    23    13    43 1   
    24    14    15 1   
    25    14    18 1   
    26    14    44 1   
    27    15    16 1   
    28    15    21 1   
    29    15    45 1   
    30    16    17 1   
    31    16    19 1   
    32    16    46 1   
    33    17    18 1   
    34    17    47 1   
    35    17    48 1   
    36    18    49 1   
    37    18    50 1   
    38    19    20 1   
    39    19    51 1   
    40    19    52 1   
    41    20    21 1   
    42    20    53 1   
    43    20    54 1   
    44    21    22 1   
    45    22    23 2   
    46    22    24 1   
    47    24    25 1   
    48    24    29 1   
    49    24    55 1   
    50    25    26 1   
    51    25    27 1   
    52    25    28 1   
    53    26    56 1   
    54    26    57 1   
    55    26    58 1   
    56    27    59 1   
    57    27    60 1   
    58    27    61 1   
    59    28    62 1   
    60    28    63 1   
    61    28    64 1   
    62    29    30 1   
    63    29    65 1   
    64    30    31 2   
    65    30    32 1   
    66    32    33 1   
    67    32    34 1   
    68    32    66 1   
    69    33    67 1   
    70    33    68 1   
    71    33    69 1   
    72    34    35 1   
    73    34    70 1   
    74    35    71 1   
    75    35    72 1   
    76    35    73 1   
@<TRIPOS>SUBSTRUCTURE
     1 G13         1 TEMP              0 ****  ****    0 ROOT
