@<TRIPOS>MOLECULE
G14
   21    22     1     0     0
SMALL
bcc


@<TRIPOS>ATOM
      1 O14          3.3880     1.6850    -0.0690 o          1 G14      -0.821800
      2 C12          3.3420     0.4420    -0.0510 c          1 G14       0.841100
      3 O13          4.3070    -0.3510    -0.0420 o          1 G14      -0.821800
      4 C10          1.9830    -0.1960    -0.0370 cc         1 G14       0.278800
      5 C9           1.7130    -1.5410    -0.0190 cd         1 G14      -0.244600
      6 N8           0.3590    -1.6450    -0.0100 na         1 G14      -0.313900
      7 C7          -0.1550    -0.3890    -0.0220 cd         1 G14       0.376000
      8 N11          0.8090     0.5010    -0.0390 nc         1 G14      -0.626000
      9 C6          -1.5840    -0.0830    -0.0140 ca         1 G14      -0.070500
     10 C1          -2.5580    -1.0820     0.0020 ca         1 G14      -0.124500
     11 C2          -3.9060    -0.7530     0.0120 ca         1 G14      -0.135500
     12 C3          -4.3040     0.5760     0.0060 ca         1 G14      -0.153000
     13 C4          -3.3400     1.5780    -0.0100 ca         1 G14      -0.135500
     14 C5          -1.9940     1.2520    -0.0200 ca         1 G14      -0.124500
     15 H9           2.3530    -2.4060    -0.0120 h4         1 G14       0.173000
     16 H1          -2.2840    -2.1300     0.0060 ha         1 G14       0.140500
     17 H2          -4.6460    -1.5420     0.0250 ha         1 G14       0.117500
     18 H3          -5.3560     0.8300     0.0150 ha         1 G14       0.115000
     19 H4          -3.6380     2.6180    -0.0140 ha         1 G14       0.117500
     20 H5          -1.2480     2.0350    -0.0310 ha         1 G14       0.140500
     21 HN8         -0.1530    -2.5130     0.0070 hn         1 G14       0.271700
@<TRIPOS>BOND
     1     1     2 1   
     2     2     3 1   
     3     2     4 1   
     4     4     5 2   
     5     4     8 1   
     6     5     6 1   
     7     5    15 1   
     8     6     7 1   
     9     6    21 1   
    10     7     8 2   
    11     7     9 1   
    12     9    10 ar  
    13     9    14 ar  
    14    10    11 ar  
    15    10    16 1   
    16    11    12 ar  
    17    11    17 1   
    18    12    13 ar  
    19    12    18 1   
    20    13    14 ar  
    21    13    19 1   
    22    14    20 1   
@<TRIPOS>SUBSTRUCTURE
     1 G14         1 TEMP              0 ****  ****    0 ROOT
