@<TRIPOS>MOLECULE
G14
   21    22     1     0     0
SMALL
No Charge or Current Charge


@<TRIPOS>ATOM
      1 O14          3.5560     1.6150    -0.0630 o          1 G14      -0.716500
      2 C12          3.4100     0.3970    -0.0510 c          1 G14       0.630500
      3 O13          4.3740    -0.3610    -0.0510 o          1 G14      -0.716500
      4 C10          2.0040    -0.1890    -0.0350 cc         1 G14       0.213500
      5 C9           1.7630    -1.5430    -0.0210 cd         1 G14      -0.212000
      6 N8           0.3830    -1.6690    -0.0100 na         1 G14      -0.313500
      7 C7          -0.1580    -0.3950    -0.0180 cd         1 G14       0.376000
      8 N11          0.8110     0.5090    -0.0330 nc         1 G14      -0.626000
      9 C6          -1.6020    -0.0590    -0.0100 ca         1 G14      -0.070500
     10 C1          -2.5790    -1.0810     0.0060 ca         1 G14      -0.106500
     11 C2          -3.9490    -0.7640     0.0130 ca         1 G14      -0.117500
     12 C3          -4.3620     0.5770     0.0040 ca         1 G14      -0.135000
     13 C4          -3.4040     1.6020    -0.0120 ca         1 G14      -0.117500
     14 C5          -2.0340     1.2880    -0.0190 ca         1 G14      -0.106500
     15 H9           2.4510    -2.3820    -0.0190 h4         1 G14       0.155000
     16 H1          -2.2850    -2.1280     0.0140 ha         1 G14       0.122500
     17 H2          -4.6900    -1.5600     0.0260 ha         1 G14       0.099500
     18 H3          -5.4220     0.8210     0.0100 ha         1 G14       0.097000
     19 H4          -3.7220     2.6420    -0.0190 ha         1 G14       0.099500
     20 H5          -1.3080     2.0980    -0.0320 ha         1 G14       0.122500
     21 HN8         -0.1490    -2.5310     0.0020 hn         1 G14       0.322000
@<TRIPOS>BOND
     1     1     2 1   
     2     2     3 1   
     3     2     4 1   
     4     4     5 2   
     5     4     8 1   
     6     5     6 1   
     7     5    15 1   
     8     6     7 1   
     9     6    21 1   
    10     7     8 2   
    11     7     9 1   
    12     9    10 ar  
    13     9    14 ar  
    14    10    11 ar  
    15    10    16 1   
    16    11    12 ar  
    17    11    17 1   
    18    12    13 ar  
    19    12    18 1   
    20    13    14 ar  
    21    13    19 1   
    22    14    20 1   
@<TRIPOS>SUBSTRUCTURE
     1 G14         1 TEMP              0 ****  ****    0 ROOT
