@<TRIPOS>MOLECULE
G15
   52    55     1     0     0
SMALL
bcc


@<TRIPOS>ATOM
      1 O26          2.5220    -4.3220    -3.1930 o          1 G15      -0.597100
      2 C23          1.3870    -4.2270    -2.7520 c          1 G15       0.662100
      3 N25          0.3240    -4.7930    -3.3590 n          1 G15      -0.474800
      4 C27          0.5010    -5.6670    -4.5080 c6         1 G15       0.055500
      5 C29          0.0250    -7.0650    -4.1510 c6         1 G15       0.110900
      6 O31         -1.3100    -7.0610    -3.6940 os         1 G15      -0.394600
      7 C30         -1.4820    -6.2130    -2.5860 c6         1 G15       0.110900
      8 C28         -1.0550    -4.7880    -2.9010 c6         1 G15       0.055500
      9 C22          1.1370    -3.4630    -1.4440 c3         1 G15       0.042700
     10 C24          2.3030    -2.5520    -1.0950 c3         1 G15      -0.097100
     11 N19          0.8790    -4.4210    -0.3840 n          1 G15      -0.478800
     12 C21          1.7360    -5.5720    -0.1500 c5         1 G15       0.092000
     13 C18          1.3670    -6.0030     1.2700 c5         1 G15      -0.101400
     14 C17         -0.1070    -4.2700     0.5190 c          1 G15       0.673500
     15 O20         -0.9360    -3.3780     0.5360 o          1 G15      -0.624500
     16 C16         -0.0360    -5.4490     1.4940 c5         1 G15       0.161500
     17 N13         -1.0640    -6.4370     1.2000 n7         1 G15      -0.856100
     18 S11         -2.5560    -6.4050     1.8610 sy         1 G15       1.298800
     19 O14         -2.4190    -6.1430     3.2790 o          1 G15      -0.585800
     20 O15         -3.2340    -7.5860     1.3690 o          1 G15      -0.585800
     21 C7          -3.3780    -5.0060     1.1700 cc         1 G15       0.329900
     22 N2          -3.7120    -3.9710     1.8920 nd         1 G15      -0.407800
     23 N3          -4.2290    -3.1580     0.9790 na         1 G15      -0.103400
     24 N1          -3.6460    -4.9190    -0.1390 nc         1 G15      -0.662000
     25 C1          -4.1860    -3.7210    -0.2390 cd         1 G15       0.519000
     26 C2          -4.6600    -3.1160    -1.4560 cd         1 G15      -0.147600
     27 C5          -5.0780    -1.8350    -1.6820 cc         1 G15      -0.119000
     28 C9          -5.4680    -1.6110    -3.0230 cc         1 G15      -0.142000
     29 C10         -5.3310    -2.7340    -3.7790 cd         1 G15       0.012300
     30 S6          -4.7370    -4.0750    -2.8870 ss         1 G15       0.055200
     31 CL          -5.6830    -2.9020    -5.4360 cl         1 G15      -0.035400
     32 H22          0.2440    -2.8420    -1.5410 h1         1 G15       0.089700
     33 H271         1.5460    -5.6920    -4.8040 h1         1 G15       0.069450
     34 H272        -0.0790    -5.2710    -5.3480 h1         1 G15       0.069450
     35 H281        -1.6820    -4.3840    -3.7010 h1         1 G15       0.069450
     36 H282        -1.2040    -4.1530    -2.0330 h1         1 G15       0.069450
     37 H291         0.0670    -7.7110    -5.0280 h1         1 G15       0.053700
     38 H292         0.6910    -7.4890    -3.3850 h1         1 G15       0.053700
     39 H301        -0.8920    -6.5760    -1.7300 h1         1 G15       0.053700
     40 H302        -2.5330    -6.2390    -2.3000 h1         1 G15       0.053700
     41 H241         3.2340    -3.1010    -0.9650 hc         1 G15       0.051700
     42 H242         2.4540    -1.8080    -1.8760 hc         1 G15       0.051700
     43 H243         2.0830    -2.0240    -0.1680 hc         1 G15       0.051700
     44 H211         2.7880    -5.2980    -0.2290 h1         1 G15       0.060700
     45 H212         1.5450    -6.3560    -0.8900 h1         1 G15       0.060700
     46 H181         1.4240    -7.0800     1.4130 hc         1 G15       0.074200
     47 H182         2.0460    -5.5340     1.9810 hc         1 G15       0.074200
     48 H16         -0.1810    -5.1020     2.5160 h1         1 G15       0.114700
     49 H13         -1.0170    -6.9220     0.3110 hn         1 G15       0.450800
     50 H3          -4.5970    -2.2580     1.2530 hn         1 G15       0.336700
     51 H5          -5.1040    -1.0650    -0.9240 ha         1 G15       0.153000
     52 H9          -5.8260    -0.6660    -3.4050 ha         1 G15       0.170000
@<TRIPOS>BOND
     1     1     2 2   
     2     2     3 1   
     3     2     9 1   
     4     3     4 1   
     5     3     8 1   
     6     4     5 1   
     7     4    33 1   
     8     4    34 1   
     9     5     6 1   
    10     5    37 1   
    11     5    38 1   
    12     6     7 1   
    13     7     8 1   
    14     7    39 1   
    15     7    40 1   
    16     8    35 1   
    17     8    36 1   
    18     9    10 1   
    19     9    11 1   
    20     9    32 1   
    21    10    41 1   
    22    10    42 1   
    23    10    43 1   
    24    11    12 1   
    25    11    14 1   
    26    12    13 1   
    27    12    44 1   
    28    12    45 1   
    29    13    16 1   
    30    13    46 1   
    31    13    47 1   
    32    14    15 2   
    33    14    16 1   
    34    16    17 1   
    35    16    48 1   
    36    17    18 1   
    37    17    49 1   
    38    18    19 2   
    39    18    20 2   
    40    18    21 1   
    41    21    22 2   
    42    21    24 1   
    43    22    23 1   
    44    23    25 1   
    45    23    50 1   
    46    24    25 2   
    47    25    26 1   
    48    26    27 2   
    49    26    30 1   
    50    27    28 1   
    51    27    51 1   
    52    28    29 2   
    53    28    52 1   
    54    29    30 1   
    55    29    31 1   
@<TRIPOS>SUBSTRUCTURE
     1 G15         1 TEMP              0 ****  ****    0 ROOT
