@<TRIPOS>MOLECULE
G15
   52    55     1     0     0
SMALL
No Charge or Current Charge


@<TRIPOS>ATOM
      1 O26          2.1980    -3.7310    -3.5030 o          1 G15      -0.597100
      2 C23          1.2680    -4.0520    -2.7700 c          1 G15       0.595100
      3 N25          0.4180    -5.1240    -3.1420 n          1 G15      -0.407800
      4 C27          0.6960    -5.8700    -4.4130 c6         1 G15       0.055500
      5 C29         -0.1030    -7.1900    -4.5670 c6         1 G15       0.134100
      6 O31         -1.4980    -6.9710    -4.2880 os         1 G15      -0.441000
      7 C30         -1.7190    -6.5080    -2.9440 c6         1 G15       0.134100
      8 C28         -1.0230    -5.1400    -2.7290 c6         1 G15       0.055500
      9 C22          1.0790    -3.3960    -1.3590 c3         1 G15       0.042700
     10 C24          2.2180    -2.4060    -1.0120 c3         1 G15      -0.097100
     11 N19          0.8910    -4.3760    -0.2490 n          1 G15      -0.411800
     12 C21          1.6380    -5.6460    -0.1320 c5         1 G15       0.092000
     13 C18          1.4710    -5.9810     1.3780 c5         1 G15      -0.101400
     14 C17          0.0130    -4.1110     0.8080 c          1 G15       0.531000
     15 O20         -0.6380    -3.0840     0.9400 o          1 G15      -0.549000
     16 C16          0.0900    -5.3620     1.7370 c5         1 G15       0.161500
     17 N13         -0.9270    -6.4460     1.4830 n7         1 G15      -0.911300
     18 S11         -2.5030    -6.3200     2.0730 sy         1 G15       1.157200
     19 O14         -2.3540    -6.0540     3.5100 o          1 G15      -0.515000
     20 O15         -3.1330    -7.5620     1.6060 o          1 G15      -0.515000
     21 C7          -3.2890    -4.8560     1.2110 cc         1 G15       0.329900
     22 N2          -3.6480    -3.7580     1.8750 nd         1 G15      -0.407800
     23 N3          -4.1560    -2.9770     0.8650 na         1 G15      -0.153700
     24 N1          -3.5460    -4.8310    -0.1500 nc         1 G15      -0.662000
     25 C1          -4.0910    -3.6500    -0.3330 cd         1 G15       0.519000
     26 C2          -4.5730    -3.1390    -1.5800 cd         1 G15      -0.292500
     27 C5          -5.1270    -1.8870    -1.7240 cc         1 G15      -0.101000
     28 C9          -5.5320    -1.6230    -3.0570 cc         1 G15      -0.124000
     29 C10         -5.2950    -2.6630    -3.9190 cd         1 G15      -0.041000
     30 S6          -4.5470    -4.0490    -3.0980 ss         1 G15       0.345000
     31 Cl          -5.6680    -2.6660    -5.6130 cl         1 G15      -0.127000
     32 H22          0.1550    -2.8110    -1.4520 h1         1 G15       0.089700
     33 H271         1.7680    -6.1060    -4.4730 h1         1 G15       0.069450
     34 H272         0.4610    -5.2150    -5.2640 h1         1 G15       0.069450
     35 H281        -1.5570    -4.3790    -3.3150 h1         1 G15       0.069450
     36 H282        -1.1350    -4.8620    -1.6750 h1         1 G15       0.069450
     37 H291         0.0050    -7.5770    -5.5900 h1         1 G15       0.053700
     38 H292         0.2890    -7.9480    -3.8740 h1         1 G15       0.053700
     39 H301        -1.3190    -7.2490    -2.2360 h1         1 G15       0.053700
     40 H302        -2.7990    -6.4190    -2.7640 h1         1 G15       0.053700
     41 H241         3.1800    -2.9280    -0.9420 hc         1 G15       0.051700
     42 H242         2.3020    -1.6230    -1.7750 hc         1 G15       0.051700
     43 H243         2.0230    -1.9180    -0.0490 hc         1 G15       0.051700
     44 H211         2.6930    -5.5370    -0.4170 h1         1 G15       0.060700
     45 H212         1.1860    -6.4200    -0.7670 h1         1 G15       0.060700
     46 H181         1.5430    -7.0540     1.5900 hc         1 G15       0.074200
     47 H182         2.2610    -5.4900     1.9580 hc         1 G15       0.074200
     48 H16          0.0780    -5.0270     2.7840 h1         1 G15       0.114700
     49 H13         -1.0960    -6.5560     0.4830 hn         1 G15       0.506000
     50 H3          -4.5300    -2.0480     1.0160 hn         1 G15       0.387000
     51 H5          -5.2520    -1.1540    -0.9310 ha         1 G15       0.135000
     52 H9          -5.9860    -0.6810    -3.3530 ha         1 G15       0.152000
@<TRIPOS>BOND
     1     1     2 2   
     2     2     3 1   
     3     2     9 1   
     4     3     4 1   
     5     3     8 1   
     6     4     5 1   
     7     4    33 1   
     8     4    34 1   
     9     5     6 1   
    10     5    37 1   
    11     5    38 1   
    12     6     7 1   
    13     7     8 1   
    14     7    39 1   
    15     7    40 1   
    16     8    35 1   
    17     8    36 1   
    18     9    10 1   
    19     9    11 1   
    20     9    32 1   
    21    10    41 1   
    22    10    42 1   
    23    10    43 1   
    24    11    12 1   
    25    11    14 1   
    26    12    13 1   
    27    12    44 1   
    28    12    45 1   
    29    13    16 1   
    30    13    46 1   
    31    13    47 1   
    32    14    15 2   
    33    14    16 1   
    34    16    17 1   
    35    16    48 1   
    36    17    18 1   
    37    17    49 1   
    38    18    19 2   
    39    18    20 2   
    40    18    21 1   
    41    21    22 2   
    42    21    24 1   
    43    22    23 1   
    44    23    25 1   
    45    23    50 1   
    46    24    25 2   
    47    25    26 1   
    48    26    27 2   
    49    26    30 1   
    50    27    28 1   
    51    27    51 1   
    52    28    29 2   
    53    28    52 1   
    54    29    30 1   
    55    29    31 1   
@<TRIPOS>SUBSTRUCTURE
     1 G15         1 TEMP              0 ****  ****    0 ROOT
