@<TRIPOS>MOLECULE
G16
   30    30     1     0     0
SMALL
abcg2


@<TRIPOS>ATOM
      1 C1          39.3930    69.2730    75.3220 c6         1 G16       0.473300
      2 C2          39.7650    70.6320    74.7150 c6         1 G16       0.126300
      3 C3          38.6090    71.1720    73.8870 c6         1 G16       0.120300
      4 C4          38.2190    70.1480    72.8330 c6         1 G16       0.147300
      5 C5          37.9010    68.8220    73.5250 c6         1 G16       0.126300
      6 C6          37.5030    67.7200    72.5580 c3         1 G16       0.245600
      7 O1          38.4100    69.4360    76.2600 os         1 G16      -0.597400
      8 O2          40.1510    71.5020    75.7540 oh         1 G16      -0.703000
      9 O3          39.0150    72.3930    73.3000 oh         1 G16      -0.733000
     10 O4          37.1440    70.6390    72.0900 oh         1 G16      -0.885000
     11 O5          39.0310    68.3970    74.2710 os         1 G16      -0.474000
     12 O6          38.4070    67.5690    71.5000 os         1 G16      -0.607400
     13 P           37.8630    67.8720    69.9190 p5         1 G16       1.319900
     14 O1P         36.7910    66.8290    69.6440 o          1 G16      -0.921500
     15 O2P         39.1460    67.7560    69.1200 o          1 G16      -0.921500
     16 O3P         37.2910    69.3130    69.9700 o          1 G16      -0.921500
     17 P1          38.0290    68.1800    77.4020 p5         1 G16       1.301900
     18 O1X         39.3160    67.3700    77.5200 o          1 G16      -0.934833
     19 O2X         37.6660    69.0130    78.6230 o          1 G16      -0.934833
     20 O3X         36.8580    67.4370    76.7690 o          1 G16      -0.934833
     21 H1          40.2910    68.8140    75.7540 h2         1 G16       0.045700
     22 H2          40.6110    70.4530    74.0320 h1         1 G16      -0.000300
     23 H3          37.7450    71.3390    74.5510 h1         1 G16       0.060700
     24 H4          39.1010    69.9850    72.1910 h1         1 G16       0.033700
     25 H5          37.0420    68.9690    74.1950 h1         1 G16       0.057700
     26 H61         37.4280    66.7820    73.1260 h1         1 G16       0.004700
     27 H62         36.4850    67.9370    72.2130 h1         1 G16       0.004700
     28 HO2         40.4710    72.3150    75.3510 ho         1 G16       0.445000
     29 HO3         38.3360    72.6280    72.6580 ho         1 G16       0.440000
     30 HO4         37.1550    70.1170    71.2110 ho         1 G16       0.616000
@<TRIPOS>BOND
     1     1     2 1   
     2     1     7 1   
     3     1    11 1   
     4     1    21 1   
     5     2     3 1   
     6     2     8 1   
     7     2    22 1   
     8     3     4 1   
     9     3     9 1   
    10     3    23 1   
    11     4     5 1   
    12     4    10 1   
    13     4    24 1   
    14     5     6 1   
    15     5    11 1   
    16     5    25 1   
    17     6    12 1   
    18     6    26 1   
    19     6    27 1   
    20     7    17 1   
    21     8    28 1   
    22     9    29 1   
    23    10    30 1   
    24    12    13 1   
    25    13    14 1   
    26    13    15 1   
    27    13    16 1   
    28    17    18 1   
    29    17    19 1   
    30    17    20 1   
@<TRIPOS>SUBSTRUCTURE
     1 G16         1 TEMP              0 ****  ****    0 ROOT
