@<TRIPOS>MOLECULE
G16
   30    30     1     0     0
SMALL
No Charge or Current Charge


@<TRIPOS>ATOM
      1 C1          39.2050    68.9410    75.3300 c6         1 G16       0.473300
      2 C2          39.8070    70.3120    74.8120 c6         1 G16       0.126300
      3 C3          38.7470    71.0530    73.9460 c6         1 G16       0.120300
      4 C4          38.2740    70.1330    72.7810 c6         1 G16       0.147300
      5 C5          37.7130    68.8030    73.3850 c6         1 G16       0.126300
      6 C6          37.1990    67.7580    72.3310 c3         1 G16       0.245600
      7 O1          38.1280    69.1030    76.2620 os         1 G16      -0.597400
      8 O2          40.2780    71.2100    75.8410 oh         1 G16      -0.703000
      9 O3          39.2740    72.2860    73.4150 oh         1 G16      -0.733000
     10 O4          37.3100    70.8210    71.9540 oh         1 G16      -0.885000
     11 O5          38.7290    68.1580    74.2050 os         1 G16      -0.474000
     12 O6          38.1360    67.5580    71.2550 os         1 G16      -0.607400
     13 P           37.7640    68.0760    69.7800 p5         1 G16       1.319900
     14 O1P         36.6080    67.2990    69.2600 o          1 G16      -0.921500
     15 O2P         38.9400    67.8780    68.8910 o          1 G16      -0.921500
     16 O3P         37.4230    69.5230    69.8430 o          1 G16      -0.921500
     17 P1          38.3520    68.5120    77.7360 p5         1 G16       1.301900
     18 O1X         39.5410    69.1290    78.3830 o          1 G16      -0.934833
     19 O2X         37.1450    68.8120    78.5540 o          1 G16      -0.934833
     20 O3X         38.5310    67.0360    77.6620 o          1 G16      -0.934833
     21 H1          40.0270    68.3810    75.8050 h2         1 G16       0.045700
     22 H2          40.6560    70.0640    74.1570 h1         1 G16      -0.000300
     23 H3          37.8730    71.2660    74.5810 h1         1 G16       0.060700
     24 H4          39.1560    69.8820    72.1720 h1         1 G16       0.033700
     25 H5          36.8560    69.0440    74.0300 h1         1 G16       0.057700
     26 H61         37.0090    66.8060    72.8460 h1         1 G16       0.004700
     27 H62         36.2320    68.1110    71.9500 h1         1 G16       0.004700
     28 HO2         40.2190    72.0980    75.4180 ho         1 G16       0.445000
     29 HO3         38.7100    72.4520    72.6230 ho         1 G16       0.440000
     30 HO4         37.3330    70.3050    71.0550 ho         1 G16       0.616000
@<TRIPOS>BOND
     1     1     2 1   
     2     1     7 1   
     3     1    11 1   
     4     1    21 1   
     5     2     3 1   
     6     2     8 1   
     7     2    22 1   
     8     3     4 1   
     9     3     9 1   
    10     3    23 1   
    11     4     5 1   
    12     4    10 1   
    13     4    24 1   
    14     5     6 1   
    15     5    11 1   
    16     5    25 1   
    17     6    12 1   
    18     6    26 1   
    19     6    27 1   
    20     7    17 1   
    21     8    28 1   
    22     9    29 1   
    23    10    30 1   
    24    12    13 1   
    25    13    14 1   
    26    13    15 1   
    27    13    16 1   
    28    17    18 1   
    29    17    19 1   
    30    17    20 1   
@<TRIPOS>SUBSTRUCTURE
     1 G16         1 TEMP              0 ****  ****    0 ROOT
