@<TRIPOS>MOLECULE
G17
   55    59     1     0     0
SMALL
No Charge or Current Charge


@<TRIPOS>ATOM
      1 FBF         -8.7980    -0.3930     0.8020 f          1 G17      -0.111333
      2 CBE         -8.4560    -1.2520    -0.1860 c3         1 G17       0.359300
      3 FBG         -9.0900    -2.4170     0.0810 f          1 G17      -0.111333
      4 FBH         -8.9860    -0.7680    -1.3310 f          1 G17      -0.111333
      5 CAW         -6.9370    -1.4180    -0.3030 ca         1 G17      -0.205300
      6 CAV         -6.0910    -0.3000    -0.1370 ca         1 G17      -0.009000
      7 CAX         -6.3650    -2.6730    -0.6000 ca         1 G17      -0.039000
      8 CAY         -4.9740    -2.8050    -0.7120 ca         1 G17      -0.124000
      9 CAZ         -4.1350    -1.6920    -0.5370 ca         1 G17      -0.059000
     10 CAU         -4.6860    -0.4200    -0.2470 ca         1 G17      -0.162600
     11 CAT         -3.8190     0.8130    -0.0560 c          1 G17       0.619700
     12 OBA         -4.3210     1.9040     0.1930 o          1 G17      -0.570100
     13 NAS         -2.4480     0.6140    -0.1830 ns         1 G17      -0.144000
     14 CAP         -1.3330     1.4920    -0.0730 ca         1 G17      -0.030000
     15 CAQ         -0.0560     0.9480    -0.2980 ca         1 G17      -0.152000
     16 CAO         -1.4370     2.8600     0.2510 ca         1 G17      -0.114000
     17 CAN         -0.2840     3.6570     0.3360 ca         1 G17      -0.092000
     18 CAM          0.9930     3.1120     0.1050 ca         1 G17      -0.080300
     19 CAR          2.1980     4.0470     0.1740 c3         1 G17      -0.045800
     20 CAL          1.1200     1.7300    -0.2070 cp         1 G17      -0.005000
     21 CAI          2.4430     1.0800    -0.4500 cp         1 G17      -0.067000
     22 CAH          3.4820     1.1430     0.5090 ca         1 G17      -0.036000
     23 CAJ          2.6800     0.3550    -1.6430 ca         1 G17      -0.066000
     24 CAK          3.9180    -0.2690    -1.8800 ca         1 G17      -0.116000
     25 C4           4.9510    -0.1930    -0.9300 ca         1 G17       0.089000
     26 N3           6.1420    -0.7880    -1.1470 nb         1 G17      -0.264000
     27 C5           4.7200     0.5180     0.2690 ca         1 G17      -0.206000
     28 C6           5.7620     0.5780     1.2120 ca         1 G17       0.171900
     29 N1           6.9480    -0.0180     0.9870 nb         1 G17      -0.216000
     30 C2           7.0750    -0.6710    -0.1840 ca         1 G17       0.390900
     31 NAG          8.2820    -1.3010    -0.4560 nu         1 G17      -0.900100
     32 CBD          9.4480    -1.3350     0.3860 cx         1 G17       0.183500
     33 CBC         10.3800    -2.5110     0.2330 cx         1 G17      -0.131900
     34 CBB          9.5020    -2.3970     1.4550 cx         1 G17      -0.131900
     35 H1          -6.5330     0.6720     0.0790 ha         1 G17       0.153000
     36 H2          -6.9930    -3.5500    -0.7470 ha         1 G17       0.134000
     37 H3          -4.5410    -3.7770    -0.9390 ha         1 G17       0.126000
     38 H4          -3.0620    -1.8410    -0.6330 ha         1 G17       0.120000
     39 H5          -2.1890    -0.3390    -0.3940 hn         1 G17       0.153000
     40 H6           0.0350    -0.1090    -0.5400 ha         1 G17       0.112000
     41 H7          -2.3970     3.3290     0.4380 ha         1 G17       0.143000
     42 H8          -0.3890     4.7130     0.5780 ha         1 G17       0.115000
     43 H9           2.6720     4.0080     1.1610 hc         1 G17       0.044033
     44 H10          2.9540     3.7870    -0.5770 hc         1 G17       0.044033
     45 H11          1.9100     5.0880    -0.0120 hc         1 G17       0.044033
     46 H12          3.3170     1.6720     1.4450 ha         1 G17       0.119000
     47 H13          1.8960     0.2860    -2.3930 ha         1 G17       0.115000
     48 H14          4.0750    -0.8140    -2.8070 ha         1 G17       0.132000
     49 H15          5.6500     1.1080     2.1560 h4         1 G17       0.022100
     50 H16          8.3020    -1.7590    -1.3690 hn         1 G17       0.509000
     51 H17          9.8900    -0.3610     0.6130 h1         1 G17       0.084700
     52 H18         10.1320    -3.2750    -0.4990 hc         1 G17       0.078450
     53 H19         11.4440    -2.3250     0.3550 hc         1 G17       0.078450
     54 H20          9.9740    -2.1350     2.3980 hc         1 G17       0.078450
     55 H21          8.6590    -3.0770     1.5410 hc         1 G17       0.078450
@<TRIPOS>BOND
     1     1     2 1   
     2     2     3 1   
     3     2     4 1   
     4     2     5 1   
     5     5     6 ar  
     6     5     7 ar  
     7     6    10 ar  
     8     6    35 1   
     9     7     8 ar  
    10     7    36 1   
    11     8     9 ar  
    12     8    37 1   
    13     9    10 ar  
    14     9    38 1   
    15    10    11 1   
    16    11    12 2   
    17    11    13 1   
    18    13    14 1   
    19    13    39 1   
    20    14    15 ar  
    21    14    16 ar  
    22    15    20 ar  
    23    15    40 1   
    24    16    17 ar  
    25    16    41 1   
    26    17    18 ar  
    27    17    42 1   
    28    18    19 1   
    29    18    20 ar  
    30    19    43 1   
    31    19    44 1   
    32    19    45 1   
    33    20    21 1   
    34    21    22 ar  
    35    21    23 ar  
    36    22    27 ar  
    37    22    46 1   
    38    23    24 ar  
    39    23    47 1   
    40    24    25 ar  
    41    24    48 1   
    42    25    26 ar  
    43    25    27 ar  
    44    26    30 ar  
    45    27    28 ar  
    46    28    29 ar  
    47    28    49 1   
    48    29    30 ar  
    49    30    31 1   
    50    31    32 1   
    51    31    50 1   
    52    32    33 1   
    53    32    34 1   
    54    32    51 1   
    55    33    34 1   
    56    33    52 1   
    57    33    53 1   
    58    34    54 1   
    59    34    55 1   
@<TRIPOS>SUBSTRUCTURE
     1 G17         1 TEMP              0 ****  ****    0 ROOT
