@<TRIPOS>MOLECULE
G17
   55    59     1     0     0
SMALL
bcc


@<TRIPOS>ATOM
      1 FBF         -7.5340    -1.5370     2.2010 f          1 G17      -0.232633
      2 CBE         -7.7940    -1.8060     0.9180 c3         1 G17       0.723200
      3 FBG         -8.1920    -3.0820     0.8560 f          1 G17      -0.232633
      4 FBH         -8.8510    -1.0570     0.5710 f          1 G17      -0.232633
      5 CAW         -6.6180    -1.5390     0.0300 ca         1 G17      -0.205300
      6 CAV         -5.6900    -0.5720     0.3840 ca         1 G17      -0.027000
      7 CAX         -6.4930    -2.2250    -1.1730 ca         1 G17      -0.057000
      8 CAY         -5.4300    -1.9420    -2.0150 ca         1 G17      -0.142000
      9 CAZ         -4.4900    -0.9880    -1.6580 ca         1 G17      -0.077000
     10 CAU         -4.6110    -0.3030    -0.4520 ca         1 G17      -0.162600
     11 CAT         -3.6520     0.7640    -0.0280 c          1 G17       0.686700
     12 OBA         -4.0070     1.6750     0.6970 o          1 G17      -0.570100
     13 NAS         -2.3920     0.6200    -0.5050 ns         1 G17      -0.470100
     14 CAP         -1.3010     1.4790    -0.3150 ca         1 G17       0.062600
     15 CAQ         -0.0290     0.9310    -0.4460 ca         1 G17      -0.170000
     16 CAO         -1.4190     2.8410    -0.0510 ca         1 G17      -0.132000
     17 CAN         -0.2700     3.6060     0.0650 ca         1 G17      -0.110000
     18 CAM          1.0120     3.0770    -0.0640 ca         1 G17      -0.080300
     19 CAR          2.1950     3.9970     0.0430 c3         1 G17      -0.045800
     20 CAL          1.1240     1.7030    -0.3220 cp         1 G17      -0.005000
     21 CAI          2.4290     1.0250    -0.4870 cp         1 G17      -0.067000
     22 CAH          3.4480     1.1620     0.4240 ca         1 G17      -0.054000
     23 CAJ          2.6380     0.1720    -1.6020 ca         1 G17      -0.084000
     24 CAK          3.8110    -0.5050    -1.7960 ca         1 G17      -0.199300
     25 C4           4.8670    -0.3690    -0.8670 ca         1 G17       0.482600
     26 N3           6.0260    -1.0290    -1.0460 nb         1 G17      -0.790000
     27 C5           4.6630     0.4770     0.2450 ca         1 G17      -0.336600
     28 C6           5.7550     0.5750     1.1360 ca         1 G17       0.500200
     29 N1           6.8760    -0.0590     0.9630 nb         1 G17      -0.742000
     30 C2           6.9660    -0.8530    -0.1390 ca         1 G17       0.916900
     31 NAG          8.1270    -1.5190    -0.3050 nu         1 G17      -0.844900
     32 CBD          9.2780    -1.3480     0.5130 cx         1 G17       0.183500
     33 CBC         10.1350    -2.5520     0.7360 cx         1 G17      -0.131900
     34 CBB          9.3200    -1.9930     1.8610 cx         1 G17      -0.131900
     35 H1          -5.7850    -0.0230     1.3110 ha         1 G17       0.171000
     36 H2          -7.2160    -2.9750    -1.4660 ha         1 G17       0.152000
     37 H3          -5.3370    -2.4650    -2.9570 ha         1 G17       0.144000
     38 H4          -3.6810    -0.7730    -2.3450 ha         1 G17       0.138000
     39 H5          -2.1660    -0.2600    -0.9440 hn         1 G17       0.319500
     40 H6           0.0690    -0.1320    -0.6360 ha         1 G17       0.130000
     41 H7          -2.3820     3.3170     0.0450 ha         1 G17       0.161000
     42 H8          -0.3800     4.6690     0.2440 ha         1 G17       0.133000
     43 H9           2.5870     4.0410     1.0610 hc         1 G17       0.044033
     44 H10          3.0160     3.6910    -0.6040 hc         1 G17       0.044033
     45 H11          1.9120     5.0130    -0.2310 hc         1 G17       0.044033
     46 H12          3.3270     1.7860     1.3010 ha         1 G17       0.137000
     47 H13          1.8440     0.0630    -2.3310 ha         1 G17       0.133000
     48 H14          3.9460    -1.1440    -2.6590 ha         1 G17       0.150000
     49 H15          5.6760     1.2110     2.0140 h4         1 G17       0.022100
     50 H16          8.2250    -2.0240    -1.1720 hn         1 G17       0.453800
     51 H17          9.7890    -0.3940     0.4130 h1         1 G17       0.084700
     52 H18          9.8110    -3.4850     0.2920 hc         1 G17       0.078450
     53 H19         11.2080    -2.4100     0.7490 hc         1 G17       0.078450
     54 H20          9.8300    -1.4610     2.6540 hc         1 G17       0.078450
     55 H21          8.4460    -2.5450     2.1790 hc         1 G17       0.078450
@<TRIPOS>BOND
     1     1     2 1   
     2     2     3 1   
     3     2     4 1   
     4     2     5 1   
     5     5     6 ar  
     6     5     7 ar  
     7     6    10 ar  
     8     6    35 1   
     9     7     8 ar  
    10     7    36 1   
    11     8     9 ar  
    12     8    37 1   
    13     9    10 ar  
    14     9    38 1   
    15    10    11 1   
    16    11    12 2   
    17    11    13 1   
    18    13    14 1   
    19    13    39 1   
    20    14    15 ar  
    21    14    16 ar  
    22    15    20 ar  
    23    15    40 1   
    24    16    17 ar  
    25    16    41 1   
    26    17    18 ar  
    27    17    42 1   
    28    18    19 1   
    29    18    20 ar  
    30    19    43 1   
    31    19    44 1   
    32    19    45 1   
    33    20    21 1   
    34    21    22 ar  
    35    21    23 ar  
    36    22    27 ar  
    37    22    46 1   
    38    23    24 ar  
    39    23    47 1   
    40    24    25 ar  
    41    24    48 1   
    42    25    26 ar  
    43    25    27 ar  
    44    26    30 ar  
    45    27    28 ar  
    46    28    29 ar  
    47    28    49 1   
    48    29    30 ar  
    49    30    31 1   
    50    31    32 1   
    51    31    50 1   
    52    32    33 1   
    53    32    34 1   
    54    32    51 1   
    55    33    34 1   
    56    33    52 1   
    57    33    53 1   
    58    34    54 1   
    59    34    55 1   
@<TRIPOS>SUBSTRUCTURE
     1 G17         1 TEMP              0 ****  ****    0 ROOT
