@<TRIPOS>MOLECULE
G18
   21    23     1     0     0
SMALL
No Charge or Current Charge


@<TRIPOS>ATOM
      1 CAO          0.7230     0.7440     0.0020 ca         1 G18       0.058000
      2 CAN          1.4300    -0.4810    -0.0060 ca         1 G18      -0.168600
      3 CAH          2.8420    -0.4720    -0.0050 ca         1 G18      -0.046000
      4 CAD          3.5420     0.7460     0.0030 ca         1 G18      -0.133000
      5 CAF          2.8400     1.9610     0.0110 ca         1 G18      -0.075000
      6 CAL          1.4350     1.9610     0.0100 ca         1 G18      -0.123000
      7 CAC         -2.9760     1.4440     0.0040 cc         1 G18      -0.248000
      8 CAG         -1.6500     1.8060     0.0070 cd         1 G18      -0.072000
      9 CAM         -0.7490     0.6990     0.0010 cd         1 G18      -0.145000
     10 CAJ         -1.4080    -0.5010    -0.0070 cc         1 G18      -0.028400
     11 NAC         -0.7030    -1.6910    -0.0150 ns         1 G18      -0.361100
     12 SAK         -3.1580    -0.3070    -0.0070 ss         1 G18       0.185000
     13 CAK          0.6700    -1.7890    -0.0150 c          1 G18       0.581600
     14 OAB          1.2220    -2.8800    -0.0220 o          1 G18      -0.539000
     15 HAL          0.9090     2.9110     0.0160 ha         1 G18       0.117000
     16 HAG         -1.3340     2.8440     0.0140 ha         1 G18       0.138000
     17 HAC         -3.8570     2.0730     0.0080 h4         1 G18       0.155000
     18 HAF          3.3830     2.9040     0.0170 ha         1 G18       0.115000
     19 HAD          4.6300     0.7470     0.0040 ha         1 G18       0.119000
     20 HAH          3.3990    -1.4070    -0.0110 ha         1 G18       0.136000
     21 HAN         -1.2000    -2.5730    -0.0210 hn         1 G18       0.334500
@<TRIPOS>BOND
     1     1     2 ar  
     2     1     6 ar  
     3     1     9 1   
     4     2     3 ar  
     5     2    13 1   
     6     3     4 ar  
     7     3    20 1   
     8     4     5 ar  
     9     4    19 1   
    10     5     6 ar  
    11     5    18 1   
    12     6    15 1   
    13     7     8 2   
    14     7    12 1   
    15     7    17 1   
    16     8     9 1   
    17     8    16 1   
    18     9    10 2   
    19    10    11 1   
    20    10    12 1   
    21    11    13 1   
    22    11    21 1   
    23    13    14 2   
@<TRIPOS>SUBSTRUCTURE
     1 G18         1 TEMP              0 ****  ****    0 ROOT
