@<TRIPOS>MOLECULE
G18
   21    23     1     0     0
SMALL
abcg2


@<TRIPOS>ATOM
      1 CAO          0.7130     0.7730     0.0010 ca         1 G18       0.058000
      2 CAN          1.4030    -0.4530    -0.0060 ca         1 G18      -0.168600
      3 CAH          2.8000    -0.4710    -0.0060 ca         1 G18      -0.046000
      4 CAD          3.5130     0.7090     0.0020 ca         1 G18      -0.133000
      5 CAF          2.8330     1.9270     0.0110 ca         1 G18      -0.075000
      6 CAL          1.4550     1.9610     0.0110 ca         1 G18      -0.123000
      7 CAC         -2.9560     1.3930     0.0030 cc         1 G18      -0.248000
      8 CAG         -1.6720     1.8190     0.0050 cd         1 G18      -0.072000
      9 CAM         -0.7280     0.7480    -0.0000 cd         1 G18      -0.145000
     10 CAJ         -1.3580    -0.4690    -0.0080 cc         1 G18      -0.028400
     11 NAC         -0.6820    -1.6540    -0.0140 ns         1 G18      -0.361100
     12 SAK         -3.0700    -0.3330    -0.0060 ss         1 G18       0.185000
     13 CAK          0.6950    -1.7450    -0.0140 c          1 G18       0.581600
     14 OAB          1.2410    -2.8280    -0.0190 o          1 G18      -0.539000
     15 HAL          0.9490     2.9170     0.0220 ha         1 G18       0.117000
     16 HAG         -1.4070     2.8660     0.0110 ha         1 G18       0.138000
     17 HAC         -3.8560     1.9860     0.0080 h4         1 G18       0.155000
     18 HAF          3.3900     2.8550     0.0190 ha         1 G18       0.115000
     19 HAD          4.5940     0.6910     0.0010 ha         1 G18       0.119000
     20 HAH          3.3140    -1.4220    -0.0130 ha         1 G18       0.136000
     21 HAN         -1.1800    -2.5310    -0.0190 hn         1 G18       0.334500
@<TRIPOS>BOND
     1     1     2 ar  
     2     1     6 ar  
     3     1     9 1   
     4     2     3 ar  
     5     2    13 1   
     6     3     4 ar  
     7     3    20 1   
     8     4     5 ar  
     9     4    19 1   
    10     5     6 ar  
    11     5    18 1   
    12     6    15 1   
    13     7     8 2   
    14     7    12 1   
    15     7    17 1   
    16     8     9 1   
    17     8    16 1   
    18     9    10 2   
    19    10    11 1   
    20    10    12 1   
    21    11    13 1   
    22    11    21 1   
    23    13    14 2   
@<TRIPOS>SUBSTRUCTURE
     1 G18         1 TEMP              0 ****  ****    0 ROOT
