@<TRIPOS>MOLECULE
G19
   70    73     1     0     0
SMALL
bcc


@<TRIPOS>ATOM
      1 O3          -1.9640    -2.5680     5.0930 os         1 G19      -0.444900
      2 C21         -3.2330    -2.1930     5.1710 c          1 G19       0.767100
      3 O4          -3.9310    -1.8550     4.2530 o          1 G19      -0.527000
      4 N1          -3.6190    -2.2490     6.4940 ns         1 G19      -0.594500
      5 C22         -4.8490    -1.9020     6.9930 c          1 G19       0.606600
      6 C23         -4.9530    -2.0680     8.4670 ca         1 G19       0.221800
      7 O6          -5.7770    -1.4950     6.3320 o          1 G19      -0.531100
      8 N2          -3.8950    -2.5270     9.1030 nb         1 G19      -0.274000
      9 N3          -3.8890    -2.7060    10.3910 nb         1 G19      -0.408000
     10 C24         -6.1380    -1.7410     9.1450 ca         1 G19      -0.103300
     11 C25         -6.1590    -1.9180    10.4940 ca         1 G19      -0.286300
     12 C26         -4.9870    -2.4200    11.1060 ca         1 G19       0.646200
     13 N4          -4.9260    -2.6450    12.4220 nv         1 G19      -0.961500
     14 O2          -1.2740    -4.6420    -0.3320 oh         1 G19      -0.591800
     15 C1           1.3070    -1.5200     0.3580 c5         1 G19      -0.105400
     16 C2           2.4530    -0.9870     1.2000 c5         1 G19       0.036100
     17 C3           2.2400    -1.6770     2.5370 c          1 G19       0.539100
     18 C4           0.8120    -2.2000     2.6150 c5         1 G19      -0.165700
     19 C5           0.0780    -1.9760     3.9550 c6         1 G19      -0.007000
     20 C6           0.0180    -0.4420     4.1610 c6         1 G19      -0.028500
     21 C7          -0.4120     0.2720     2.9100 c2         1 G19      -0.151200
     22 C8          -0.3580    -0.2310     1.6810 c2         1 G19      -0.182200
     23 C9           0.1280    -1.6180     1.3500 c5         1 G19      -0.001800
     24 C10         -1.0650    -2.4160     0.7330 c3         1 G19      -0.083700
     25 C11         -0.9290    -3.9620     0.8560 c3         1 G19       0.168100
     26 C12         -1.7760    -4.5630     2.0000 c3         1 G19       0.002200
     27 C13         -1.2700    -4.1200     3.3940 c3         1 G19      -0.094400
     28 C14         -1.3180    -2.6340     3.8060 c3         1 G19       0.177100
     29 C15          0.8360    -2.6370     5.1140 c3         1 G19      -0.088100
     30 C16         -0.7630     0.0910     5.3640 c3         1 G19      -0.079100
     31 C17         -1.3210    -1.9590    -0.7060 c3         1 G19      -0.087100
     32 C18         -1.6240    -6.0970     1.9920 c3         1 G19      -0.080100
     33 C19         -3.2570    -4.2730     1.9170 c2         1 G19      -0.168200
     34 C20         -3.9970    -3.9470     0.8640 c2         1 G19      -0.197000
     35 HN1         -2.9430    -2.5670     7.1790 hn         1 G19       0.360500
     36 H24         -6.9990    -1.3610     8.6140 ha         1 G19       0.171000
     37 H25         -7.0340    -1.6850    11.0860 ha         1 G19       0.151000
     38 HN41        -5.6680    -2.3550    13.0340 hn         1 G19       0.446300
     39 HN42        -4.0540    -2.9190    12.8430 hn         1 G19       0.446300
     40 HO2         -0.6020    -4.4560    -0.9940 ho         1 G19       0.402000
     41 H11A         1.0930    -0.8800    -0.4960 hc         1 G19       0.055700
     42 H12          1.5530    -2.5190    -0.0250 hc         1 G19       0.055700
     43 H2           2.2900     0.0830     1.3750 h1         1 G19       0.103700
     44 H4           0.9660    -3.2770     2.4770 hc         1 G19       0.076700
     45 H6           1.0580    -0.1410     4.3510 hc         1 G19       0.060700
     46 H7          -0.7720     1.2880     3.0390 ha         1 G19       0.130000
     47 H8          -0.6840     0.3870     0.8510 ha         1 G19       0.129000
     48 H10         -1.9660    -2.1170     1.2720 hc         1 G19       0.079700
     49 H11          0.1170    -4.2090     1.0860 h1         1 G19       0.019700
     50 H131        -0.2630    -4.5190     3.5350 hc         1 G19       0.054700
     51 H132        -1.8790    -4.6670     4.1160 hc         1 G19       0.054700
     52 H14         -1.9190    -2.0500     3.1100 h1         1 G19       0.088700
     53 H151         1.7460    -2.0950     5.3590 hc         1 G19       0.047033
     54 H152         0.2300    -2.6760     6.0170 hc         1 G19       0.047033
     55 H153         1.1310    -3.6590     4.8730 hc         1 G19       0.047033
     56 H161        -0.5120    -0.4330     6.2850 hc         1 G19       0.038700
     57 H162        -0.5030     1.1410     5.5090 hc         1 G19       0.038700
     58 H163        -1.8420     0.0570     5.2230 hc         1 G19       0.038700
     59 H171        -2.2650    -2.3540    -1.0780 hc         1 G19       0.037033
     60 H172        -1.3960    -0.8730    -0.7550 hc         1 G19       0.037033
     61 H173        -0.5390    -2.2560    -1.4060 hc         1 G19       0.037033
     62 H181        -2.1830    -6.5370     2.8200 hc         1 G19       0.040033
     63 H182        -1.9980    -6.5350     1.0700 hc         1 G19       0.040033
     64 H183        -0.5760    -6.3870     2.1100 hc         1 G19       0.040033
     65 H19         -3.7770    -4.4120     2.8620 ha         1 G19       0.117000
     66 H201        -5.0660    -3.8100     0.9730 ha         1 G19       0.117000
     67 H202        -3.5940    -3.8130    -0.1300 ha         1 G19       0.117000
     68 O5           3.7440    -1.1100     0.6850 oh         1 G19      -0.557800
     69 O1           3.1190    -1.8510     3.3440 o          1 G19      -0.495100
     70 HO5          3.9230    -2.0390     0.5040 ho         1 G19       0.403000
@<TRIPOS>BOND
     1     1     2 1   
     2     1    28 1   
     3     2     3 2   
     4     2     4 1   
     5     4     5 1   
     6     4    35 1   
     7     5     6 1   
     8     5     7 2   
     9     6     8 ar  
    10     6    10 ar  
    11     8     9 ar  
    12     9    12 ar  
    13    10    11 ar  
    14    10    36 1   
    15    11    12 ar  
    16    11    37 1   
    17    12    13 1   
    18    13    38 1   
    19    13    39 1   
    20    14    25 1   
    21    14    40 1   
    22    15    16 1   
    23    15    23 1   
    24    15    41 1   
    25    15    42 1   
    26    16    17 1   
    27    16    43 1   
    28    16    68 1   
    29    17    18 1   
    30    17    69 2   
    31    18    19 1   
    32    18    23 1   
    33    18    44 1   
    34    19    20 1   
    35    19    28 1   
    36    19    29 1   
    37    20    21 1   
    38    20    30 1   
    39    20    45 1   
    40    21    22 2   
    41    21    46 1   
    42    22    23 1   
    43    22    47 1   
    44    23    24 1   
    45    24    25 1   
    46    24    31 1   
    47    24    48 1   
    48    25    26 1   
    49    25    49 1   
    50    26    27 1   
    51    26    32 1   
    52    26    33 1   
    53    27    28 1   
    54    27    50 1   
    55    27    51 1   
    56    28    52 1   
    57    29    53 1   
    58    29    54 1   
    59    29    55 1   
    60    30    56 1   
    61    30    57 1   
    62    30    58 1   
    63    31    59 1   
    64    31    60 1   
    65    31    61 1   
    66    32    62 1   
    67    32    63 1   
    68    32    64 1   
    69    33    34 2   
    70    33    65 1   
    71    34    66 1   
    72    34    67 1   
    73    68    70 1   
@<TRIPOS>SUBSTRUCTURE
     1 G19         1 TEMP              0 ****  ****    0 ROOT
