@<TRIPOS>MOLECULE
G19
   70    73     1     0     0
SMALL
No Charge or Current Charge


@<TRIPOS>ATOM
      1 O3          -2.0930    -2.5050     5.0950 os         1 G19      -0.468100
      2 C21         -3.4260    -2.2380     5.1930 c          1 G19       0.651100
      3 O4          -4.1690    -1.9390     4.2740 o          1 G19      -0.478000
      4 N1          -3.7560    -2.2810     6.5080 ns         1 G19      -0.460500
      5 C22         -4.9540    -2.0520     7.1410 c          1 G19       0.539600
      6 C23         -4.9310    -2.1920     8.6560 ca         1 G19       0.156500
      7 O6          -5.9720    -1.7570     6.5260 o          1 G19      -0.531100
      8 N2          -3.7610    -2.5240     9.2760 nb         1 G19      -0.274000
      9 N3          -3.7030    -2.6570    10.6200 nb         1 G19      -0.408000
     10 C24         -6.1070    -1.9810     9.4150 ca         1 G19      -0.020000
     11 C25         -6.0370    -2.1220    10.8160 ca         1 G19      -0.203000
     12 C26         -4.8000    -2.4650    11.3720 ca         1 G19       0.580900
     13 N4          -4.6110    -2.6230    12.7000 nv         1 G19      -1.071900
     14 O2          -1.0970    -4.6440    -0.4670 oh         1 G19      -0.654000
     15 C1           1.5600    -1.5240     0.4160 c5         1 G19      -0.105400
     16 C2           2.5950    -0.9300     1.4050 c5         1 G19       0.059300
     17 C3           2.3560    -1.7690     2.6850 c          1 G19       0.539100
     18 C4           0.8650    -2.2060     2.6440 c5         1 G19      -0.165700
     19 C5           0.0110    -1.9260     3.9290 c6         1 G19      -0.007000
     20 C6          -0.0440    -0.3460     4.0890 c6         1 G19      -0.028500
     21 C7          -0.3440     0.3610     2.7720 c2         1 G19      -0.201200
     22 C8          -0.1980    -0.1670     1.5420 c2         1 G19      -0.232200
     23 C9           0.2650    -1.6170     1.2930 c5         1 G19      -0.001800
     24 C10         -0.9110    -2.4080     0.5960 c3         1 G19      -0.083700
     25 C11         -0.9000    -3.9760     0.7920 c3         1 G19       0.191300
     26 C12         -1.9270    -4.5180     1.8810 c3         1 G19       0.002200
     27 C13         -1.5660    -4.1110     3.3660 c3         1 G19      -0.094400
     28 C14         -1.4560    -2.5830     3.7970 c3         1 G19       0.200300
     29 C15          0.7100    -2.5470     5.1970 c3         1 G19      -0.088100
     30 C16         -0.9560     0.2700     5.2180 c3         1 G19      -0.079100
     31 C17         -1.1450    -1.9500    -0.8810 c3         1 G19      -0.087100
     32 C18         -1.9040    -6.0800     1.8750 c3         1 G19      -0.080100
     33 C19         -3.3650    -4.0750     1.5710 c2         1 G19      -0.218200
     34 C20         -4.0940    -4.3900     0.4860 c2         1 G19      -0.297000
     35 HN1         -2.9870    -2.5210     7.1140 hn         1 G19       0.360500
     36 H24         -7.0440    -1.7160     8.9310 ha         1 G19       0.153000
     37 H25         -6.9110    -1.9720    11.4420 ha         1 G19       0.133000
     38 HN41        -5.2900    -2.1980    13.3240 hn         1 G19       0.501500
     39 HN42        -3.6490    -2.6310    13.0230 hn         1 G19       0.501500
     40 HO2         -0.4920    -4.2180    -1.1070 ho         1 G19       0.441000
     41 H11A         1.4370    -0.8860    -0.4670 hc         1 G19       0.055700
     42 H12          1.8690    -2.5140     0.0580 hc         1 G19       0.055700
     43 H2           2.3630     0.1160     1.6500 h1         1 G19       0.103700
     44 H4           0.9590    -3.2910     2.6410 hc         1 G19       0.076700
     45 H6           0.9650    -0.0180     4.3750 hc         1 G19       0.060700
     46 H7          -0.6770     1.3980     2.8630 ha         1 G19       0.180000
     47 H8          -0.4260     0.4730     0.6870 ha         1 G19       0.179000
     48 H10         -1.8320    -2.0590     1.0670 hc         1 G19       0.079700
     49 H11          0.1010    -4.2770     1.1140 h1         1 G19       0.019700
     50 H131        -0.6300    -4.6080     3.6400 hc         1 G19       0.054700
     51 H132        -2.3160    -4.5830     4.0120 hc         1 G19       0.054700
     52 H14         -2.0160    -1.9620     3.0920 h1         1 G19       0.088700
     53 H151         1.6720    -2.0680     5.4100 hc         1 G19       0.047033
     54 H152         0.1200    -2.4250     6.1120 hc         1 G19       0.047033
     55 H153         0.9010    -3.6190     5.0760 hc         1 G19       0.047033
     56 H161        -0.7910    -0.2200     6.1830 hc         1 G19       0.038700
     57 H162        -0.7430     1.3370     5.3550 hc         1 G19       0.038700
     58 H163        -2.0190     0.1830     4.9670 hc         1 G19       0.038700
     59 H171        -2.0830    -2.3620    -1.2740 hc         1 G19       0.037033
     60 H172        -1.2290    -0.8610    -0.9540 hc         1 G19       0.037033
     61 H173        -0.3260    -2.2660    -1.5390 hc         1 G19       0.037033
     62 H181        -2.5730    -6.4870     2.6430 hc         1 G19       0.040033
     63 H182        -2.2320    -6.4960     0.9150 hc         1 G19       0.040033
     64 H183        -0.8940    -6.4580     2.0740 hc         1 G19       0.040033
     65 H19         -3.8230    -3.4470     2.3320 ha         1 G19       0.167000
     66 H201        -5.1150    -4.0250     0.3610 ha         1 G19       0.167000
     67 H202        -3.7030    -5.0180    -0.3150 ha         1 G19       0.167000
     68 O5           3.9450    -1.0480     0.9040 oh         1 G19      -0.620000
     69 O1           3.2290    -2.2290     3.4140 o          1 G19      -0.495100
     70 HO5          4.2280    -1.9810     1.0310 ho         1 G19       0.442000
@<TRIPOS>BOND
     1     1     2 1   
     2     1    28 1   
     3     2     3 2   
     4     2     4 1   
     5     4     5 1   
     6     4    35 1   
     7     5     6 1   
     8     5     7 2   
     9     6     8 ar  
    10     6    10 ar  
    11     8     9 ar  
    12     9    12 ar  
    13    10    11 ar  
    14    10    36 1   
    15    11    12 ar  
    16    11    37 1   
    17    12    13 1   
    18    13    38 1   
    19    13    39 1   
    20    14    25 1   
    21    14    40 1   
    22    15    16 1   
    23    15    23 1   
    24    15    41 1   
    25    15    42 1   
    26    16    17 1   
    27    16    43 1   
    28    16    68 1   
    29    17    18 1   
    30    17    69 2   
    31    18    19 1   
    32    18    23 1   
    33    18    44 1   
    34    19    20 1   
    35    19    28 1   
    36    19    29 1   
    37    20    21 1   
    38    20    30 1   
    39    20    45 1   
    40    21    22 2   
    41    21    46 1   
    42    22    23 1   
    43    22    47 1   
    44    23    24 1   
    45    24    25 1   
    46    24    31 1   
    47    24    48 1   
    48    25    26 1   
    49    25    49 1   
    50    26    27 1   
    51    26    32 1   
    52    26    33 1   
    53    27    28 1   
    54    27    50 1   
    55    27    51 1   
    56    28    52 1   
    57    29    53 1   
    58    29    54 1   
    59    29    55 1   
    60    30    56 1   
    61    30    57 1   
    62    30    58 1   
    63    31    59 1   
    64    31    60 1   
    65    31    61 1   
    66    32    62 1   
    67    32    63 1   
    68    32    64 1   
    69    33    34 2   
    70    33    65 1   
    71    34    66 1   
    72    34    67 1   
    73    68    70 1   
@<TRIPOS>SUBSTRUCTURE
     1 G19         1 TEMP              0 ****  ****    0 ROOT
