@<TRIPOS>MOLECULE
G1C
   45    47     1     0     0
SMALL
No Charge or Current Charge


@<TRIPOS>ATOM
      1 N1          -8.3140     1.0150     1.5070 ns         1 G1C      -0.458400
      2 C2          -7.5060     0.1480     2.1620 cc         1 G1C       0.623800
      3 N2          -8.0240    -0.4060     3.2460 nv         1 G1C      -1.063200
      4 N3          -6.2770    -0.1950     1.8450 nd         1 G1C      -0.674100
      5 C4          -5.8190     0.4440     0.6910 cd         1 G1C       0.092400
      6 C5          -6.5640     1.3340    -0.0390 cc         1 G1C       0.078500
      7 C6          -7.9480     1.6790     0.3760 c          1 G1C       0.524500
      8 O6          -8.7060     2.4550    -0.1940 o          1 G1C      -0.579000
      9 N7          -5.8460     1.7940    -1.1200 nc         1 G1C      -0.628000
     10 C8          -4.6600     1.1810    -1.0430 cd         1 G1C       0.448400
     11 N9          -4.6000     0.3370     0.0630 na         1 G1C      -0.186500
     12 PA           1.3820     0.8200     0.4410 p5         1 G1C       1.448800
     13 PB           4.0180     0.9070     0.2950 p5         1 G1C       1.517400
     14 PG           5.2770    -1.6490     0.2890 p5         1 G1C       1.345500
     15 C1          -3.4700    -0.4920     0.4700 c5         1 G1C       0.315300
     16 O1A          0.9830    -0.1170     1.5330 o          1 G1C      -0.866500
     17 O1B          4.1420     0.7750     1.7820 o          1 G1C      -0.868500
     18 O1G          3.9340    -2.1750     0.6660 o          1 G1C      -0.885167
     19 C7          -3.4960    -1.9650    -0.0560 c5         1 G1C      -0.171400
     20 O2A          1.4070     2.2390     0.9050 o          1 G1C      -0.866500
     21 O2B          4.2530     2.3170    -0.1620 o          1 G1C      -0.868500
     22 O2G          5.9370    -2.6300    -0.6240 o          1 G1C      -0.885167
     23 C3          -2.3240    -1.9970    -1.0670 c5         1 G1C       0.117300
     24 O3          -1.7870    -3.3120    -1.2170 oh         1 G1C      -0.692000
     25 O3A          2.6750     0.3540    -0.3350 os         1 G1C      -0.704800
     26 C3B          5.2110    -0.1000    -0.6530 c3         1 G1C      -0.475700
     27 Cl3B         6.8380     0.6730    -1.1790 cl         1 G1C      -0.415000
     28 O3G          6.1630    -1.4770     1.4830 o          1 G1C      -0.885167
     29 C9          -1.3550    -1.0050    -0.3710 c5         1 G1C       0.152300
     30 O4          -2.2450     0.0830    -0.0380 os         1 G1C      -0.391000
     31 C10         -0.1620    -0.5380    -1.2610 c3         1 G1C       0.240600
     32 O5           0.3750     0.7190    -0.8160 os         1 G1C      -0.545400
     33 HN1         -9.2470     1.1800     1.8490 hn         1 G1C       0.287500
     34 HN2         -8.7590     0.1020     3.7250 hn         1 G1C       0.470500
     35 HN2A        -7.3620    -0.8930     3.8380 hn         1 G1C       0.470500
     36 H8          -3.8280     1.2940    -1.7300 h5         1 G1C       0.097100
     37 H1          -3.4610    -0.4830     1.5680 h2         1 G1C       0.081700
     38 H2          -3.3370    -2.6640     0.7740 hc         1 G1C       0.048200
     39 H2'A        -4.4530    -2.2310    -0.5200 hc         1 G1C       0.048200
     40 H3          -2.6410    -1.5970    -2.0420 h1         1 G1C       0.043700
     41 HO3         -2.5010    -3.8740    -1.6000 ho         1 G1C       0.475000
     42 H3B          4.6740    -0.3600    -1.5710 h1         1 G1C       0.082700
     43 H4          -0.9630    -1.4390     0.5580 h1         1 G1C       0.073700
     44 H5           0.6120    -1.3170    -1.2610 h1         1 G1C       0.011700
     45 H5'A        -0.5170    -0.4320    -2.2940 h1         1 G1C       0.011700
@<TRIPOS>BOND
     1     1     2 1   
     2     1     7 1   
     3     1    33 1   
     4     2     3 1   
     5     2     4 2   
     6     3    34 1   
     7     3    35 1   
     8     4     5 1   
     9     5     6 2   
    10     5    11 1   
    11     6     7 1   
    12     6     9 1   
    13     7     8 2   
    14     9    10 2   
    15    10    11 1   
    16    10    36 1   
    17    11    15 1   
    18    12    16 1   
    19    12    20 1   
    20    12    25 1   
    21    12    32 1   
    22    13    17 1   
    23    13    21 1   
    24    13    25 1   
    25    13    26 1   
    26    14    18 1   
    27    14    22 1   
    28    14    26 1   
    29    14    28 1   
    30    15    19 1   
    31    15    30 1   
    32    15    37 1   
    33    19    23 1   
    34    19    38 1   
    35    19    39 1   
    36    23    24 1   
    37    23    29 1   
    38    23    40 1   
    39    24    41 1   
    40    26    27 1   
    41    26    42 1   
    42    29    30 1   
    43    29    31 1   
    44    29    43 1   
    45    31    32 1   
    46    31    44 1   
    47    31    45 1   
@<TRIPOS>SUBSTRUCTURE
     1 G1C         1 TEMP              0 ****  ****    0 ROOT
