@<TRIPOS>MOLECULE
G1C
   45    47     1     0     0
SMALL
abcg2


@<TRIPOS>ATOM
      1 N1          -7.2070     2.4700     0.1490 ns         1 G1C      -0.458400
      2 C2          -7.0460     1.7080     1.2700 cc         1 G1C       0.623800
      3 N2          -7.9730     1.8350     2.2320 nv         1 G1C      -1.063200
      4 N3          -6.0640     0.8540     1.4180 nd         1 G1C      -0.674100
      5 C4          -5.2420     0.8090     0.3590 cd         1 G1C       0.092400
      6 C5          -5.3160     1.5300    -0.8180 cc         1 G1C       0.078500
      7 C6          -6.3810     2.4610    -0.9830 c          1 G1C       0.524500
      8 O6          -6.6240     3.1870    -1.9330 o          1 G1C      -0.579000
      9 N7          -4.2820     1.1960    -1.6530 nc         1 G1C      -0.628000
     10 C8          -3.6080     0.3000    -1.0000 cd         1 G1C       0.448400
     11 N9          -4.1410     0.0240     0.2340 na         1 G1C      -0.186500
     12 PA           1.9320    -1.9400    -0.0400 p5         1 G1C       1.448800
     13 PB           4.1740    -0.2170     0.7650 p5         1 G1C       1.517400
     14 PG           5.2690     2.0790    -1.0910 p5         1 G1C       1.345500
     15 C1          -3.6800    -0.9470     1.2210 c5         1 G1C       0.315300
     16 O1A          2.0040    -1.4860    -1.4680 o          1 G1C      -0.866500
     17 O1B          5.0370    -1.2220     0.0570 o          1 G1C      -0.868500
     18 O1G          5.8140     1.0910    -2.1220 o          1 G1C      -0.885167
     19 C7          -4.2060    -2.3540     0.9620 c5         1 G1C      -0.171400
     20 O2A          2.2840    -3.3570     0.3020 o          1 G1C      -0.866500
     21 O2B          4.5390     0.2640     2.1380 o          1 G1C      -0.868500
     22 O2G          4.6620     3.3390    -1.7100 o          1 G1C      -0.885167
     23 C3          -3.0750    -2.9920     0.1610 c5         1 G1C       0.117300
     24 O3          -2.9690    -4.3830     0.2710 oh         1 G1C      -0.692000
     25 O3A          2.6550    -0.9050     0.9780 os         1 G1C      -0.704800
     26 C3B          3.7880     1.1590    -0.3690 c3         1 G1C      -0.475700
     27 CL3B         2.6870     2.3110     0.5120 cl         1 G1C      -0.415000
     28 O3G          6.2020     2.3450     0.0890 o          1 G1C      -0.885167
     29 C9          -1.8530    -2.3290     0.7920 c5         1 G1C       0.152300
     30 O4          -2.2840    -1.0200     1.1580 os         1 G1C      -0.391000
     31 C10         -0.6600    -2.2490    -0.1290 c3         1 G1C       0.240600
     32 O5           0.4090    -1.6270     0.5390 os         1 G1C      -0.545400
     33 HN1         -7.9980     3.1000     0.1070 hn         1 G1C       0.287500
     34 HN2         -8.5890     2.6300     2.2520 hn         1 G1C       0.470500
     35 HN2A        -7.7820     1.3980     3.1180 hn         1 G1C       0.470500
     36 H8          -2.7120    -0.1830    -1.3570 h5         1 G1C       0.097100
     37 H1          -4.0050    -0.5640     2.1910 h2         1 G1C       0.081700
     38 H2          -4.3160    -2.8790     1.9140 hc         1 G1C       0.048200
     39 H2'A        -5.1710    -2.3560     0.4570 hc         1 G1C       0.048200
     40 H3          -3.1540    -2.6890    -0.8930 h1         1 G1C       0.043700
     41 HO3         -3.6750    -4.7850    -0.2440 ho         1 G1C       0.475000
     42 H3B          3.1860     0.7610    -1.1860 h1         1 G1C       0.082700
     43 H4          -1.5760    -2.8870     1.6970 h1         1 G1C       0.073700
     44 H5          -0.4160    -3.2750    -0.4330 h1         1 G1C       0.011700
     45 H5'A        -0.9290    -1.7010    -1.0410 h1         1 G1C       0.011700
@<TRIPOS>BOND
     1     1     2 1   
     2     1     7 1   
     3     1    33 1   
     4     2     3 1   
     5     2     4 2   
     6     3    34 1   
     7     3    35 1   
     8     4     5 1   
     9     5     6 2   
    10     5    11 1   
    11     6     7 1   
    12     6     9 1   
    13     7     8 2   
    14     9    10 2   
    15    10    11 1   
    16    10    36 1   
    17    11    15 1   
    18    12    16 1   
    19    12    20 1   
    20    12    25 1   
    21    12    32 1   
    22    13    17 1   
    23    13    21 1   
    24    13    25 1   
    25    13    26 1   
    26    14    18 1   
    27    14    22 1   
    28    14    26 1   
    29    14    28 1   
    30    15    19 1   
    31    15    30 1   
    32    15    37 1   
    33    19    23 1   
    34    19    38 1   
    35    19    39 1   
    36    23    24 1   
    37    23    29 1   
    38    23    40 1   
    39    24    41 1   
    40    26    27 1   
    41    26    42 1   
    42    29    30 1   
    43    29    31 1   
    44    29    43 1   
    45    31    32 1   
    46    31    44 1   
    47    31    45 1   
@<TRIPOS>SUBSTRUCTURE
     1 G1C         1 TEMP              0 ****  ****    0 ROOT
