@<TRIPOS>MOLECULE
G1D
   75    77     1     0     0
SMALL
No Charge or Current Charge


@<TRIPOS>ATOM
      1 C20         -2.3990     0.1480    -0.7670 c          1 G1D       0.604100
      2 C25         -6.8490    -0.9960    -0.0800 ca         1 G1D      -0.135300
      3 C26         -6.8130    -1.8030     1.0720 ca         1 G1D      -0.069000
      4 C35          7.6370     0.6140     0.0770 ca         1 G1D      -0.109000
      5 C36          6.8770     1.7370     0.4440 ca         1 G1D      -0.108000
      6 C24         -5.6240    -0.1960    -0.5040 c3         1 G1D      -0.044100
      7 C16         -2.5440     3.6620     2.1340 ca         1 G1D      -0.103000
      8 C17         -1.3500     4.2630     2.5660 ca         1 G1D      -0.104000
      9 C19         -0.3150     3.7350     0.4270 ca         1 G1D      -0.102500
     10 C18         -0.2360     4.3010     1.7120 ca         1 G1D      -0.103000
     11 C28         -9.1130    -2.4140     0.6090 ca         1 G1D       0.336900
     12 C34          7.1650    -0.2550    -0.9210 ca         1 G1D      -0.108000
     13 C33          5.9350    -0.0010    -1.5520 ca         1 G1D      -0.098000
     14 C32          5.1670     1.1230    -1.1860 ca         1 G1D      -0.080300
     15 C31          3.8190     1.3870    -1.8510 c3         1 G1D      -0.053100
     16 C30         -8.0430    -0.9470    -0.8320 ca         1 G1D       0.342900
     17 C01          3.1750    -3.1210     2.6750 c3         1 G1D      -0.107767
     18 C02          3.9670    -3.2400     1.3470 c3         1 G1D       0.225000
     19 C03          5.4640    -2.8610     1.4950 c3         1 G1D      -0.107767
     20 C04          3.8400    -4.6730     0.7850 c3         1 G1D      -0.107767
     21 C06          3.2890    -1.0420     0.4540 c          1 G1D       0.659100
     22 C09          2.6150     0.8810    -1.0170 c3         1 G1D       0.125700
     23 C10          1.2600     1.1810    -1.7180 c3         1 G1D       0.164800
     24 C12         -1.2660     0.9870    -1.4630 c3         1 G1D       0.116500
     25 C13         -1.5970     2.5060    -1.4060 c3         1 G1D      -0.068100
     26 C14         -1.5060     3.1210    -0.0100 ca         1 G1D      -0.085300
     27 C15         -2.6220     3.0960     0.8500 ca         1 G1D      -0.102500
     28 C23         -4.5620    -1.0810    -1.1880 c3         1 G1D       0.108000
     29 C27         -7.9690    -2.5220     1.4170 ca         1 G1D      -0.161000
     30 C37          5.6460     1.9910    -0.1860 ca         1 G1D      -0.098000
     31 N08          2.7590    -0.5470    -0.7010 ns         1 G1D      -0.486900
     32 N11          0.1040     0.7140    -0.9150 n7         1 G1D      -0.864400
     33 N22         -3.3900    -0.3120    -1.6150 ns         1 G1D      -0.518900
     34 N29         -9.1580    -1.6400    -0.5010 nb         1 G1D      -0.662000
     35 O05          3.3570    -2.4040     0.3360 os         1 G1D      -0.480100
     36 O07          3.6400    -0.3650     1.4080 o          1 G1D      -0.548000
     37 O21         -2.4010    -0.1290     0.4280 o          1 G1D      -0.577100
     38 H1          -5.9150    -1.8710     1.6820 ha         1 G1D       0.118000
     39 H2           8.5880     0.4160     0.5670 ha         1 G1D       0.111000
     40 H3           7.2400     2.4100     1.2180 ha         1 G1D       0.111500
     41 H4          -5.9130     0.6090    -1.1900 hc         1 G1D       0.051200
     42 H5          -5.1810     0.2920     0.3730 hc         1 G1D       0.051200
     43 H6          -3.4090     3.6360     2.7930 ha         1 G1D       0.112500
     44 H7          -1.2890     4.7010     3.5600 ha         1 G1D       0.113000
     45 H8           0.5520     3.7790    -0.2270 ha         1 G1D       0.106000
     46 H9           0.6870     4.7710     2.0430 ha         1 G1D       0.112500
     47 H10        -10.0220    -2.9620     0.8560 h4         1 G1D       0.020100
     48 H11          7.7510    -1.1270    -1.2040 ha         1 G1D       0.111500
     49 H12          5.5750    -0.6840    -2.3180 ha         1 G1D       0.109000
     50 H13          3.7000     2.4630    -2.0290 hc         1 G1D       0.048700
     51 H14          3.7910     0.9130    -2.8410 hc         1 G1D       0.048700
     52 H15         -8.1080    -0.3350    -1.7310 h4         1 G1D       0.018100
     53 H16          2.0970    -3.2160     2.4950 hc         1 G1D       0.048367
     54 H17          3.4730    -3.9160     3.3690 hc         1 G1D       0.048367
     55 H18          3.3590    -2.1670     3.1800 hc         1 G1D       0.048367
     56 H19          5.9920    -3.6150     2.0910 hc         1 G1D       0.048367
     57 H20          5.9500    -2.8060     0.5140 hc         1 G1D       0.048367
     58 H21          5.5970    -1.8980     2.0000 hc         1 G1D       0.048367
     59 H22          2.7870    -4.9400     0.6330 hc         1 G1D       0.048367
     60 H23          4.3570    -4.7610    -0.1780 hc         1 G1D       0.048367
     61 H24          4.2800    -5.4030     1.4740 hc         1 G1D       0.048367
     62 H25          2.6160     1.4390    -0.0710 h1         1 G1D       0.087700
     63 H26          1.1980     2.2630    -1.8920 h1         1 G1D       0.027200
     64 H27          1.2520     0.6920    -2.7010 h1         1 G1D       0.027200
     65 H28         -1.2860     0.6860    -2.5200 h1         1 G1D       0.059700
     66 H29         -0.9350     3.0450    -2.0940 hc         1 G1D       0.049700
     67 H30         -2.6060     2.6560    -1.8090 hc         1 G1D       0.049700
     68 H31         -3.5520     2.6360     0.5250 ha         1 G1D       0.106000
     69 H32         -4.2400    -1.8730    -0.4980 h1         1 G1D       0.056700
     70 H33         -5.0040    -1.5630    -2.0700 h1         1 G1D       0.056700
     71 H34         -7.9850    -3.1580     2.2980 ha         1 G1D       0.125000
     72 H35          5.0600     2.8590     0.1090 ha         1 G1D       0.109000
     73 H36          2.4730    -1.2310    -1.3860 hn         1 G1D       0.318500
     74 H37          0.1500     1.1300     0.0250 hn         1 G1D       0.454000
     75 H39         -3.3060    -0.0650    -2.5950 hn         1 G1D       0.308500
@<TRIPOS>BOND
     1     1    24 1   
     2     1    33 1   
     3     1    37 2   
     4     2     3 ar  
     5     2     6 1   
     6     2    16 ar  
     7     3    29 ar  
     8     3    38 1   
     9     4     5 ar  
    10     4    12 ar  
    11     4    39 1   
    12     5    30 ar  
    13     5    40 1   
    14     6    28 1   
    15     6    41 1   
    16     6    42 1   
    17     7     8 ar  
    18     7    27 ar  
    19     7    43 1   
    20     8    10 ar  
    21     8    44 1   
    22     9    10 ar  
    23     9    26 ar  
    24     9    45 1   
    25    10    46 1   
    26    11    29 ar  
    27    11    34 ar  
    28    11    47 1   
    29    12    13 ar  
    30    12    48 1   
    31    13    14 ar  
    32    13    49 1   
    33    14    15 1   
    34    14    30 ar  
    35    15    22 1   
    36    15    50 1   
    37    15    51 1   
    38    16    34 ar  
    39    16    52 1   
    40    17    18 1   
    41    17    53 1   
    42    17    54 1   
    43    17    55 1   
    44    18    19 1   
    45    18    20 1   
    46    18    35 1   
    47    19    56 1   
    48    19    57 1   
    49    19    58 1   
    50    20    59 1   
    51    20    60 1   
    52    20    61 1   
    53    21    31 1   
    54    21    35 1   
    55    21    36 2   
    56    22    23 1   
    57    22    31 1   
    58    22    62 1   
    59    23    32 1   
    60    23    63 1   
    61    23    64 1   
    62    24    25 1   
    63    24    32 1   
    64    24    65 1   
    65    25    26 1   
    66    25    66 1   
    67    25    67 1   
    68    26    27 ar  
    69    27    68 1   
    70    28    33 1   
    71    28    69 1   
    72    28    70 1   
    73    29    71 1   
    74    30    72 1   
    75    31    73 1   
    76    32    74 1   
    77    33    75 1   
@<TRIPOS>SUBSTRUCTURE
     1 G1D         1 TEMP              0 ****  ****    0 ROOT
