@<TRIPOS>MOLECULE
G1D
   75    77     1     0     0
SMALL
abcg2


@<TRIPOS>ATOM
      1 C20         -2.0880     0.3380    -0.2690 c          1 G1D       0.604100
      2 C25         -6.7270    -1.3070    -0.3890 ca         1 G1D      -0.135300
      3 C26         -7.5420    -0.6110     0.4970 ca         1 G1D      -0.069000
      4 C35          7.6430     0.2420    -0.2140 ca         1 G1D      -0.109000
      5 C36          7.0170     1.3340     0.3730 ca         1 G1D      -0.108000
      6 C24         -5.5810    -0.6430    -1.0930 c3         1 G1D      -0.044100
      7 C16         -3.0420     3.8860     2.0100 ca         1 G1D      -0.103000
      8 C17         -1.9300     4.3890     2.6740 ca         1 G1D      -0.104000
      9 C19         -0.5520     3.7570     0.8050 ca         1 G1D      -0.102500
     10 C18         -0.6830     4.3240     2.0660 ca         1 G1D      -0.103000
     11 C28         -8.7340    -2.6340     0.9000 ca         1 G1D       0.336900
     12 C34          7.0370    -0.3990    -1.2860 ca         1 G1D      -0.108000
     13 C33          5.8110     0.0480    -1.7620 ca         1 G1D      -0.098000
     14 C32          5.1720     1.1390    -1.1780 ca         1 G1D      -0.080300
     15 C31          3.8200     1.5830    -1.6570 c3         1 G1D      -0.053100
     16 C30         -6.9950    -2.6610    -0.5650 ca         1 G1D       0.342900
     17 C01          3.1070    -3.5810     2.1500 c3         1 G1D      -0.107767
     18 C02          3.9910    -3.3780     0.9240 c3         1 G1D       0.225000
     19 C03          5.4020    -2.9460     1.3090 c3         1 G1D      -0.107767
     20 C04          4.0510    -4.6670     0.1120 c3         1 G1D      -0.107767
     21 C06          3.2330    -1.1450     0.2970 c          1 G1D       0.659100
     22 C09          2.6800     0.9610    -0.8340 c3         1 G1D       0.125700
     23 C10          1.3260     1.3980    -1.3840 c3         1 G1D       0.164800
     24 C12         -1.0770     1.1000    -1.1200 c3         1 G1D       0.116500
     25 C13         -1.5120     2.5900    -1.2100 c3         1 G1D      -0.068100
     26 C14         -1.6590     3.2450     0.1300 ca         1 G1D      -0.085300
     27 C15         -2.9050     3.3180     0.7520 ca         1 G1D      -0.102500
     28 C23         -4.3640    -0.5510    -0.1770 c3         1 G1D       0.108000
     29 C27         -8.5620    -1.2810     1.1530 ca         1 G1D      -0.161000
     30 C37          5.7910     1.7750    -0.1050 ca         1 G1D      -0.098000
     31 N08          2.7920    -0.4740    -0.7880 ns         1 G1D      -0.486900
     32 N11          0.2420     0.8510    -0.6040 n7         1 G1D      -0.864400
     33 N22         -3.2680     0.0980    -0.8620 ns         1 G1D      -0.518900
     34 N29         -7.9680    -3.3150     0.0560 nb         1 G1D      -0.662000
     35 O05          3.3970    -2.4360    -0.0030 os         1 G1D      -0.480100
     36 O07          3.4240    -0.6450     1.3870 o          1 G1D      -0.548000
     37 O21         -1.8530     0.0110     0.8840 o          1 G1D      -0.577100
     38 H1          -7.3830     0.4470     0.6700 ha         1 G1D       0.118000
     39 H2           8.6000    -0.1030     0.1570 ha         1 G1D       0.111000
     40 H3           7.4860     1.8440     1.2050 ha         1 G1D       0.111500
     41 H4          -5.3180    -1.2060    -1.9920 hc         1 G1D       0.051200
     42 H5          -5.8730     0.3590    -1.4160 hc         1 G1D       0.051200
     43 H6          -4.0200     3.9410     2.4720 ha         1 G1D       0.112500
     44 H7          -2.0370     4.8370     3.6530 ha         1 G1D       0.113000
     45 H8           0.4240     3.7290     0.3340 ha         1 G1D       0.106000
     46 H9           0.1890     4.7180     2.5710 ha         1 G1D       0.112500
     47 H10         -9.5230    -3.1880     1.3970 h4         1 G1D       0.020100
     48 H11          7.5190    -1.2480    -1.7540 ha         1 G1D       0.111500
     49 H12          5.3460    -0.4570    -2.6000 ha         1 G1D       0.109000
     50 H13          3.7330     2.6710    -1.5990 hc         1 G1D       0.048700
     51 H14          3.6890     1.3120    -2.7100 hc         1 G1D       0.048700
     52 H15         -6.3870    -3.2420    -1.2520 h4         1 G1D       0.018100
     53 H16          2.0810    -3.8140     1.8600 hc         1 G1D       0.048367
     54 H17          3.4870    -4.4250     2.7270 hc         1 G1D       0.048367
     55 H18          3.0990    -2.7090     2.7990 hc         1 G1D       0.048367
     56 H19          5.9000    -3.7650     1.8300 hc         1 G1D       0.048367
     57 H20          5.9900    -2.7050     0.4230 hc         1 G1D       0.048367
     58 H21          5.4070    -2.0790     1.9640 hc         1 G1D       0.048367
     59 H22          3.0560    -4.9890    -0.1990 hc         1 G1D       0.048367
     60 H23          4.6690    -4.5460    -0.7790 hc         1 G1D       0.048367
     61 H24          4.4870    -5.4640     0.7140 hc         1 G1D       0.048367
     62 H25          2.7690     1.3190     0.1930 h1         1 G1D       0.087700
     63 H26          1.3340     2.4980    -1.4370 h1         1 G1D       0.027200
     64 H27          1.2210     1.0490    -2.4170 h1         1 G1D       0.027200
     65 H28         -1.1140     0.7060    -2.1420 h1         1 G1D       0.059700
     66 H29         -0.7790     3.1240    -1.8190 hc         1 G1D       0.049700
     67 H30         -2.4540     2.6450    -1.7610 hc         1 G1D       0.049700
     68 H31         -3.7790     2.9270     0.2430 ha         1 G1D       0.106000
     69 H32         -4.6240     0.0100     0.7250 h1         1 G1D       0.056700
     70 H33         -4.0710    -1.5540     0.1450 h1         1 G1D       0.056700
     71 H34         -9.2150    -0.7670     1.8450 ha         1 G1D       0.125000
     72 H35          5.3090     2.6260     0.3630 ha         1 G1D       0.109000
     73 H36          2.6990    -0.9840    -1.6530 hn         1 G1D       0.318500
     74 H37          0.3080     1.1330     0.3660 hn         1 G1D       0.454000
     75 H39         -3.3860     0.3400    -1.8330 hn         1 G1D       0.308500
@<TRIPOS>BOND
     1     1    24 1   
     2     1    33 1   
     3     1    37 2   
     4     2     3 ar  
     5     2     6 1   
     6     2    16 ar  
     7     3    29 ar  
     8     3    38 1   
     9     4     5 ar  
    10     4    12 ar  
    11     4    39 1   
    12     5    30 ar  
    13     5    40 1   
    14     6    28 1   
    15     6    41 1   
    16     6    42 1   
    17     7     8 ar  
    18     7    27 ar  
    19     7    43 1   
    20     8    10 ar  
    21     8    44 1   
    22     9    10 ar  
    23     9    26 ar  
    24     9    45 1   
    25    10    46 1   
    26    11    29 ar  
    27    11    34 ar  
    28    11    47 1   
    29    12    13 ar  
    30    12    48 1   
    31    13    14 ar  
    32    13    49 1   
    33    14    15 1   
    34    14    30 ar  
    35    15    22 1   
    36    15    50 1   
    37    15    51 1   
    38    16    34 ar  
    39    16    52 1   
    40    17    18 1   
    41    17    53 1   
    42    17    54 1   
    43    17    55 1   
    44    18    19 1   
    45    18    20 1   
    46    18    35 1   
    47    19    56 1   
    48    19    57 1   
    49    19    58 1   
    50    20    59 1   
    51    20    60 1   
    52    20    61 1   
    53    21    31 1   
    54    21    35 1   
    55    21    36 2   
    56    22    23 1   
    57    22    31 1   
    58    22    62 1   
    59    23    32 1   
    60    23    63 1   
    61    23    64 1   
    62    24    25 1   
    63    24    32 1   
    64    24    65 1   
    65    25    26 1   
    66    25    66 1   
    67    25    67 1   
    68    26    27 ar  
    69    27    68 1   
    70    28    33 1   
    71    28    69 1   
    72    28    70 1   
    73    29    71 1   
    74    30    72 1   
    75    31    73 1   
    76    32    74 1   
    77    33    75 1   
@<TRIPOS>SUBSTRUCTURE
     1 G1D         1 TEMP              0 ****  ****    0 ROOT
