@<TRIPOS>MOLECULE
G1E
   42    44     1     0     0
SMALL
No Charge or Current Charge


@<TRIPOS>ATOM
      1 N           -5.4660     0.8250     0.2430 n7         1 G1E      -0.836400
      2 CA          -4.4810    -0.0210    -0.5410 c6         1 G1E       0.043500
      3 C           -3.0400     0.6190    -0.6200 c          1 G1E       0.617100
      4 O           -2.8930     1.7480    -1.0710 o          1 G1E      -0.511100
      5 CB          -4.5060    -1.5090    -0.0360 c6         1 G1E       0.118800
      6 CAE          5.7770    -0.5070     1.2070 ca         1 G1E       0.285900
      7 CAF          3.7870     0.6200     1.5700 ca         1 G1E       0.337900
      8 CAG          3.8800    -1.0370    -0.2050 ca         1 G1E      -0.134000
      9 CAH         -6.8360    -1.2440     0.7360 c6         1 G1E       0.109800
     10 CAI         -6.8360     0.2370     0.2470 c6         1 G1E       0.112800
     11 CAQ          2.1400     2.4590    -0.8690 c          1 G1E       0.502600
     12 CAS          5.2240    -1.2650     0.1330 ca         1 G1E       0.244000
     13 CAT          3.1480    -0.0730     0.5160 ca         1 G1E      -0.031000
     14 CAU         -0.6430     0.1450    -0.1160 cc         1 G1E       0.581300
     15 CAV          1.2600     1.3110    -0.4160 cd         1 G1E       0.235500
     16 CAW          1.7400     0.1620     0.2020 cc         1 G1E      -0.113000
     17 NAK          5.0800     0.4150     1.9200 nb         1 G1E      -0.635000
     18 NAL         -0.1320     1.2740    -0.5770 nd         1 G1E      -0.644000
     19 NAM         -5.8810    -2.0850    -0.0410 n7         1 G1E      -0.843400
     20 NAO         -1.9860    -0.1480    -0.1540 ns         1 G1E      -0.487400
     21 OAC          3.3610     2.4840    -0.7500 o          1 G1E      -0.510100
     22 SAP          0.4950    -0.9970     0.5420 ss         1 G1E      -0.086400
     23 H1          -5.1420     0.8930     1.2190 hn         1 G1E       0.432000
     24 H3          -4.8160    -0.0410    -1.5890 h1         1 G1E       0.066700
     25 H4          -3.8570    -2.1290    -0.6740 h1         1 G1E       0.066200
     26 H5          -4.1060    -1.5550     0.9900 h1         1 G1E       0.066200
     27 H6           0.6720     4.0350    -0.8410 hc         1 G1E       0.069033
     28 H7           2.1420     4.4460    -1.8210 hc         1 G1E       0.069033
     29 H8           0.8470     3.3020    -2.3700 hc         1 G1E       0.069033
     30 H9           6.8140    -0.6520     1.5060 h4         1 G1E       0.018100
     31 H10          3.2410     1.3600     2.1560 h4         1 G1E       0.029100
     32 H11          3.4090    -1.5930    -1.0100 ha         1 G1E       0.121000
     33 H12         -6.5640    -1.2700     1.8020 h1         1 G1E       0.062700
     34 H13         -7.8530    -1.6580     0.6500 h1         1 G1E       0.062700
     35 H14         -7.4980     0.8360     0.8900 h1         1 G1E       0.060200
     36 H15         -7.2510     0.2770    -0.7720 h1         1 G1E       0.060200
     37 H16          5.5500    -2.6630    -1.3960 hn         1 G1E       0.454500
     38 H17          6.9520    -2.3280    -0.4100 hn         1 G1E       0.454500
     39 H18         -6.2090    -2.1190    -1.0150 hn         1 G1E       0.407000
     40 H20         -2.2440    -1.0500     0.2130 hn         1 G1E       0.329500
     41 NAB          5.9520    -2.2080    -0.5770 nv         1 G1E      -1.071000
     42 CAA          1.4430     3.6570    -1.5220 c3         1 G1E      -0.182100
@<TRIPOS>BOND
     1     1     2 1   
     2     1    10 1   
     3     1    23 1   
     4     2     3 1   
     5     2     5 1   
     6     2    24 1   
     7     3     4 2   
     8     3    20 1   
     9     5    19 1   
    10     5    25 1   
    11     5    26 1   
    12     6    12 ar  
    13     6    17 ar  
    14     6    30 1   
    15     7    13 ar  
    16     7    17 ar  
    17     7    31 1   
    18     8    12 ar  
    19     8    13 ar  
    20     8    32 1   
    21     9    10 1   
    22     9    19 1   
    23     9    33 1   
    24     9    34 1   
    25    10    35 1   
    26    10    36 1   
    27    11    15 1   
    28    11    21 2   
    29    11    42 1   
    30    12    41 1   
    31    13    16 1   
    32    14    18 2   
    33    14    20 1   
    34    14    22 1   
    35    15    16 2   
    36    15    18 1   
    37    16    22 1   
    38    19    39 1   
    39    20    40 1   
    40    27    42 1   
    41    28    42 1   
    42    29    42 1   
    43    37    41 1   
    44    38    41 1   
@<TRIPOS>SUBSTRUCTURE
     1 G1E         1 TEMP              0 ****  ****    0 ROOT
