@<TRIPOS>MOLECULE
G1E
   42    44     1     0     0
SMALL
abcg2


@<TRIPOS>ATOM
      1 N           -5.2790     0.2760    -1.1410 n7         1 G1E      -0.836400
      2 CA          -4.2530    -0.3990    -0.3710 c6         1 G1E       0.043500
      3 C           -2.9620     0.3910    -0.4290 c          1 G1E       0.617100
      4 O           -2.9260     1.5910    -0.5650 o          1 G1E      -0.511100
      5 CB          -4.6630    -0.6160     1.1030 c6         1 G1E       0.118800
      6 CAE          5.9020    -0.8510     0.5930 ca         1 G1E       0.285900
      7 CAF          4.0250     0.2420     1.2970 ca         1 G1E       0.337900
      8 CAG          3.9300    -1.0230    -0.7310 ca         1 G1E      -0.134000
      9 CAH         -6.9770    -0.6160     0.4430 c6         1 G1E       0.109800
     10 CAI         -6.5650    -0.3990    -1.0090 c6         1 G1E       0.112800
     11 CAQ          1.8720     2.6670    -0.0970 c          1 G1E       0.502600
     12 CAS          5.2720    -1.3640    -0.5490 ca         1 G1E       0.244000
     13 CAT          3.3000    -0.2020     0.1930 ca         1 G1E      -0.031000
     14 CAU         -0.5440     0.0440    -0.1510 cc         1 G1E       0.581300
     15 CAV          1.2260     1.3320    -0.0410 cd         1 G1E       0.235500
     16 CAW          1.8820     0.1340     0.0450 cc         1 G1E      -0.113000
     17 NAK          5.2950    -0.0800     1.4800 nb         1 G1E      -0.635000
     18 NAL         -0.1370     1.2620    -0.1440 nd         1 G1E      -0.644000
     19 NAM         -5.9460    -1.2790     1.2280 n7         1 G1E      -0.843400
     20 NAO         -1.8440    -0.3900    -0.2480 ns         1 G1E      -0.487400
     21 OAC          3.0790     2.7790    -0.1090 o          1 G1E      -0.510100
     22 SAP          0.7230    -1.1420    -0.0190 ss         1 G1E      -0.086400
     23 H1          -5.3690     1.2320    -0.8160 hn         1 G1E       0.432000
     24 H3          -4.0940    -1.3870    -0.8210 h1         1 G1E       0.066700
     25 H4          -3.9100    -1.2000     1.6370 h1         1 G1E       0.066200
     26 H5          -4.7260     0.3610     1.5970 h1         1 G1E       0.066200
     27 H6           0.2880     3.8630     0.7120 hc         1 G1E       0.069033
     28 H7           1.5220     4.7750    -0.1870 hc         1 G1E       0.069033
     29 H8           0.3060     3.7920    -1.0330 hc         1 G1E       0.069033
     30 H9           6.9450    -1.0900     0.7830 h4         1 G1E       0.018100
     31 H10          3.5540     0.8620     2.0510 h4         1 G1E       0.029100
     32 H11          3.3910    -1.3880    -1.5980 ha         1 G1E       0.121000
     33 H12         -7.1880     0.3540     0.9060 h1         1 G1E       0.062700
     34 H13         -7.8960    -1.2030     0.4970 h1         1 G1E       0.062700
     35 H14         -7.3190     0.1850    -1.5410 h1         1 G1E       0.060200
     36 H15         -6.4960    -1.3670    -1.5170 h1         1 G1E       0.060200
     37 H16          5.4010    -2.7170    -2.0560 hn         1 G1E       0.454500
     38 H17          6.7900    -2.5790    -1.1330 hn         1 G1E       0.454500
     39 H18         -5.8560    -2.2410     0.9200 hn         1 G1E       0.407000
     40 H20         -1.9900    -1.3880    -0.2100 hn         1 G1E       0.329500
     41 NAB          5.9570    -2.1190    -1.4660 nv         1 G1E      -1.071000
     42 CAA          0.9500     3.8500    -0.1550 c3         1 G1E      -0.182100
@<TRIPOS>BOND
     1     1     2 1   
     2     1    10 1   
     3     1    23 1   
     4     2     3 1   
     5     2     5 1   
     6     2    24 1   
     7     3     4 2   
     8     3    20 1   
     9     5    19 1   
    10     5    25 1   
    11     5    26 1   
    12     6    12 ar  
    13     6    17 ar  
    14     6    30 1   
    15     7    13 ar  
    16     7    17 ar  
    17     7    31 1   
    18     8    12 ar  
    19     8    13 ar  
    20     8    32 1   
    21     9    10 1   
    22     9    19 1   
    23     9    33 1   
    24     9    34 1   
    25    10    35 1   
    26    10    36 1   
    27    11    15 1   
    28    11    21 2   
    29    11    42 1   
    30    12    41 1   
    31    13    16 1   
    32    14    18 2   
    33    14    20 1   
    34    14    22 1   
    35    15    16 2   
    36    15    18 1   
    37    16    22 1   
    38    19    39 1   
    39    20    40 1   
    40    27    42 1   
    41    28    42 1   
    42    29    42 1   
    43    37    41 1   
    44    38    41 1   
@<TRIPOS>SUBSTRUCTURE
     1 G1E         1 TEMP              0 ****  ****    0 ROOT
