@<TRIPOS>MOLECULE
G1G
   82    87     1     0     0
SMALL
No Charge or Current Charge


@<TRIPOS>ATOM
      1 O36         -3.4670    -5.8000     2.4360 o          1 G1G      -0.616000
      2 C36         -2.6210    -5.0170     2.0200 c          1 G1G       0.532500
      3 N31         -1.3200    -5.3740     1.8760 ns         1 G1G      -0.439400
      4 C32         -0.3520    -4.5210     1.4670 cc         1 G1G       0.702800
      5 N32          0.8670    -5.0260     1.3930 nv         1 G1G      -1.054200
      6 N33         -0.4880    -3.2560     1.1360 nd         1 G1G      -0.669100
      7 C35         -2.8510    -3.6010     1.6410 cc         1 G1G       0.086500
      8 C34         -1.8080    -2.8150     1.2350 cd         1 G1G       0.127400
      9 N37         -4.0240    -2.8820     1.6570 nc         1 G1G      -0.639000
     10 C38         -3.6840    -1.6430     1.2890 cd         1 G1G       0.474400
     11 N39         -2.3210    -1.5620     1.0070 na         1 G1G      -0.186500
     12 C41         -1.5710    -0.3770     0.6140 c5         1 G1G       0.315300
     13 O44         -2.0000     0.7610     1.3980 os         1 G1G      -0.420000
     14 C42         -1.6820     0.0760    -0.8720 c5         1 G1G       0.066300
     15 O42         -0.6480    -0.5600    -1.6770 os         1 G1G      -0.449000
     16 C43         -1.3420     1.5890    -0.7360 c5         1 G1G       0.103300
     17 O43          0.0620     1.8000    -0.5140 oh         1 G1G      -0.711000
     18 C44         -2.1980     1.9170     0.5300 c5         1 G1G       0.154300
     19 C45         -3.7130     2.1130     0.2010 c3         1 G1G       0.224600
     20 O45         -4.3490     2.9920     1.1400 os         1 G1G      -0.561400
     21 PA          -4.6800     2.5670     2.6610 p5         1 G1G       1.473800
     22 O1A         -5.7260     3.4450     3.2610 o          1 G1G      -0.868500
     23 O2A         -5.1360     1.1470     2.7010 o          1 G1G      -0.868500
     24 O1B         -3.2780     2.7040     3.3560 os         1 G1G      -0.702800
     25 PB          -2.7750     4.1720     3.6260 p5         1 G1G       1.528800
     26 O2B         -3.3820     4.8520     4.8090 o          1 G1G      -0.868500
     27 O3B         -2.8370     5.0590     2.4260 o          1 G1G      -0.868500
     28 O3A         -1.2610     3.8010     3.8320 os         1 G1G      -0.714800
     29 PG          -0.8430     3.2610     5.2500 p5         1 G1G       1.486800
     30 O1G         -1.9190     2.6880     6.1060 o          1 G1G      -0.864500
     31 O2G         -0.0480     4.2940     5.9810 o          1 G1G      -0.864500
     32 O25          0.1440     2.0980     4.7210 os         1 G1G      -0.593400
     33 C25         -0.3750     0.8210     4.3020 c3         1 G1G       0.209600
     34 C24         -0.1640    -0.2240     5.4460 c5         1 G1G       0.141300
     35 C23         -0.0080    -1.7020     4.9470 c5         1 G1G       0.138300
     36 O23          0.5820    -2.5760     5.9200 oh         1 G1G      -0.724000
     37 C22         -1.5000    -2.0680     4.7400 c5         1 G1G       0.097300
     38 O22         -1.7290    -3.4880     4.6880 oh         1 G1G      -0.741000
     39 O24         -1.3300    -0.2610     6.3160 os         1 G1G      -0.434000
     40 C21         -2.1510    -1.4110     5.9950 c5         1 G1G       0.281300
     41 N19         -3.5530    -1.0400     5.8160 na         1 G1G      -0.060700
     42 C14         -4.5660    -1.8830     5.3620 cc         1 G1G       0.214400
     43 N13         -4.4690    -3.1980     4.9620 nc         1 G1G      -0.736100
     44 C12         -5.6210    -3.7050     4.5850 cd         1 G1G       0.782800
     45 N12         -5.5880    -4.9540     4.1650 nv         1 G1G      -1.039200
     46 N11         -6.8210    -3.1000     4.5840 ns         1 G1G      -0.452400
     47 C18         -4.1260     0.1860     6.1180 cc         1 G1G       0.085700
     48 N17         -5.4610     0.0780     5.8180 na         1 G1G       0.129000
     49 C37         -6.4430     1.1630     5.9510 c3         1 G1G       0.063900
     50 C15         -5.7490    -1.1940     5.3730 cd         1 G1G      -0.340600
     51 C16         -7.0050    -1.8140     4.9600 c          1 G1G       0.645600
     52 O16         -8.0970    -1.2710     4.9560 o          1 G1G      -0.528000
     53 HN31        -1.0810    -6.3260     2.0940 hn         1 G1G       0.308500
     54 H321         1.5850    -4.3240     1.2610 hn         1 G1G       0.489500
     55 H322         1.1010    -5.7680     2.0400 hn         1 G1G       0.489500
     56 H38         -4.3450    -0.7870     1.2130 h5         1 G1G       0.157100
     57 H41         -0.5210    -0.5880     0.8500 h2         1 G1G       0.090700
     58 H42         -2.6780    -0.1130    -1.2960 h1         1 G1G       0.078700
     59 H461        -1.6200    -0.6300    -3.5340 h1         1 G1G       0.028367
     60 H462         0.1410    -0.8580    -3.5910 h1         1 G1G       0.028367
     61 H463        -0.5310     0.7610    -3.3080 h1         1 G1G       0.028367
     62 H43         -1.6790     2.1600    -1.6130 h1         1 G1G       0.059700
     63 HO43         0.5090     1.0610    -0.9910 ho         1 G1G       0.498000
     64 H44         -1.8250     2.8230     1.0250 h1         1 G1G       0.116700
     65 H451        -4.2210     1.1430     0.1600 h1         1 G1G       0.013200
     66 H452        -3.7940     2.5560    -0.8000 h1         1 G1G       0.013200
     67 H251        -1.4410     0.8780     4.0430 h1         1 G1G       0.054200
     68 H252         0.1640     0.4850     3.4070 h1         1 G1G       0.054200
     69 H24          0.7160     0.0800     6.0280 h1         1 G1G       0.101700
     70 H23          0.5480    -1.7520     3.9990 h1         1 G1G       0.087700
     71 HO23         0.0760    -3.4180     5.8060 ho         1 G1G       0.504000
     72 H22         -1.8840    -1.5830     3.8300 h1         1 G1G       0.108700
     73 HO22        -2.7250    -3.5860     4.7610 ho         1 G1G       0.544000
     74 H21         -2.1280    -2.1090     6.8400 h2         1 G1G       0.075700
     75 H121        -4.6940    -5.2060     3.7490 hn         1 G1G       0.528000
     76 H122        -6.3710    -5.2590     3.6070 hn         1 G1G       0.528000
     77 HN11        -7.6450    -3.6010     4.3020 hn         1 G1G       0.324500
     78 H18         -3.6210     1.0590     6.5080 h5         1 G1G       0.240000
     79 H371        -5.9370     2.0980     6.2190 h1         1 G1G       0.084367
     80 H372        -6.9640     1.3010     4.9960 h1         1 G1G       0.084367
     81 H373        -7.1700     0.9070     6.7290 h1         1 G1G       0.084367
     82 C46         -0.6670    -0.3070    -3.0950 c3         1 G1G       0.146900
@<TRIPOS>BOND
     1     1     2 2   
     2     2     3 1   
     3     2     7 1   
     4     3     4 1   
     5     3    53 1   
     6     4     5 1   
     7     4     6 2   
     8     5    54 1   
     9     5    55 1   
    10     6     8 1   
    11     7     8 2   
    12     7     9 1   
    13     8    11 1   
    14     9    10 2   
    15    10    11 1   
    16    10    56 1   
    17    11    12 1   
    18    12    13 1   
    19    12    14 1   
    20    12    57 1   
    21    13    18 1   
    22    14    15 1   
    23    14    16 1   
    24    14    58 1   
    25    15    82 1   
    26    16    17 1   
    27    16    18 1   
    28    16    62 1   
    29    17    63 1   
    30    18    19 1   
    31    18    64 1   
    32    19    20 1   
    33    19    65 1   
    34    19    66 1   
    35    20    21 1   
    36    21    22 1   
    37    21    23 1   
    38    21    24 1   
    39    24    25 1   
    40    25    26 1   
    41    25    27 1   
    42    25    28 1   
    43    28    29 1   
    44    29    30 1   
    45    29    31 1   
    46    29    32 1   
    47    32    33 1   
    48    33    34 1   
    49    33    67 1   
    50    33    68 1   
    51    34    35 1   
    52    34    39 1   
    53    34    69 1   
    54    35    36 1   
    55    35    37 1   
    56    35    70 1   
    57    36    71 1   
    58    37    38 1   
    59    37    40 1   
    60    37    72 1   
    61    38    73 1   
    62    39    40 1   
    63    40    41 1   
    64    40    74 1   
    65    41    42 1   
    66    41    47 2   
    67    42    43 1   
    68    42    50 2   
    69    43    44 2   
    70    44    45 1   
    71    44    46 1   
    72    45    75 1   
    73    45    76 1   
    74    46    51 1   
    75    46    77 1   
    76    47    48 1   
    77    47    78 1   
    78    48    49 1   
    79    48    50 1   
    80    49    79 1   
    81    49    80 1   
    82    49    81 1   
    83    50    51 1   
    84    51    52 2   
    85    59    82 1   
    86    60    82 1   
    87    61    82 1   
@<TRIPOS>SUBSTRUCTURE
     1 G1G         1 TEMP              0 ****  ****    0 ROOT
