@<TRIPOS>MOLECULE
G1G
   82    87     1     0     0
SMALL
bcc


@<TRIPOS>ATOM
      1 O36         -3.7310    -5.4210     2.2570 o          1 G1G      -0.691500
      2 C36         -2.7960    -4.7560     1.8160 c          1 G1G       0.675000
      3 N31         -1.5360    -5.3350     1.6900 ns         1 G1G      -0.506400
      4 C32         -0.3950    -4.6880     1.3100 cc         1 G1G       0.702800
      5 N32          0.7310    -5.4160     1.2680 nv         1 G1G      -0.943800
      6 N33         -0.3770    -3.4270     0.9600 nd         1 G1G      -0.669100
      7 C35         -2.7860    -3.4010     1.4010 cc         1 G1G       0.151800
      8 C34         -1.5790    -2.8430     1.0210 cd         1 G1G       0.112800
      9 N37         -3.7760    -2.4530     1.4120 nc         1 G1G      -0.639000
     10 C38         -3.1940    -1.3550     1.0330 cd         1 G1G       0.474400
     11 N39         -1.8530    -1.5360     0.7710 na         1 G1G      -0.207900
     12 C41         -0.8990    -0.5500     0.3240 c5         1 G1G       0.262800
     13 O44         -1.0860     0.6310     1.0420 os         1 G1G      -0.373600
     14 C42         -1.0360    -0.1710    -1.1530 c5         1 G1G       0.043100
     15 O42         -0.3300    -1.0740    -1.9430 os         1 G1G      -0.402600
     16 C43         -0.4890     1.2620    -1.1410 c5         1 G1G       0.080100
     17 O43          0.9120     1.2660    -1.0500 oh         1 G1G      -0.588800
     18 C44         -1.0650     1.7660     0.1750 c5         1 G1G       0.131100
     19 C45         -2.4560     2.3430    -0.0070 c3         1 G1G       0.201400
     20 O45         -2.9990     2.6330     1.2540 os         1 G1G      -0.538200
     21 PA          -4.6400     2.6670     1.3470 p5         1 G1G       1.473800
     22 O1A         -5.1800     3.6720     0.3780 o          1 G1G      -0.868500
     23 O2A         -5.1720     1.2630     1.3060 o          1 G1G      -0.868500
     24 O1B         -4.7820     3.1780     2.8860 os         1 G1G      -0.702800
     25 PB          -4.1540     4.5020     3.6270 p5         1 G1G       1.528800
     26 O2B         -5.1410     4.9010     4.6780 o          1 G1G      -0.868500
     27 O3B         -3.6540     5.4870     2.6220 o          1 G1G      -0.868500
     28 O3A         -2.8210     3.8600     4.3350 os         1 G1G      -0.714800
     29 PG          -2.7800     3.0250     5.7500 p5         1 G1G       1.486800
     30 O1G         -3.9190     2.0570     5.8160 o          1 G1G      -0.864500
     31 O2G         -2.4800     3.9680     6.8700 o          1 G1G      -0.864500
     32 O25         -1.3700     2.2200     5.4920 os         1 G1G      -0.570200
     33 C25         -1.3040     1.1740     4.5510 c3         1 G1G       0.186400
     34 C24         -0.5250     0.0250     5.1690 c5         1 G1G       0.118100
     35 C23         -0.4280    -1.1910     4.2630 c5         1 G1G       0.115100
     36 O23          0.6610    -1.9720     4.6760 oh         1 G1G      -0.601800
     37 C22         -1.7610    -1.8810     4.5500 c5         1 G1G       0.074100
     38 O22         -1.7090    -3.2480     4.2970 oh         1 G1G      -0.618800
     39 O24         -1.1620    -0.4710     6.3560 os         1 G1G      -0.387600
     40 C21         -1.9630    -1.5540     6.0450 c5         1 G1G       0.228800
     41 N19         -3.3640    -1.2090     6.3400 na         1 G1G      -0.082100
     42 C14         -4.4790    -1.8580     5.8700 cc         1 G1G       0.265100
     43 N13         -4.4890    -2.8820     5.0150 nc         1 G1G      -0.736100
     44 C12         -5.7040    -3.2910     4.6920 cd         1 G1G       0.782800
     45 N12         -5.8690    -4.2830     3.8310 nv         1 G1G      -0.928800
     46 N11         -6.8280    -2.7330     5.2360 ns         1 G1G      -0.519400
     47 C18         -3.7640    -0.2420     7.1730 cc         1 G1G       0.118400
     48 N17         -5.0720    -0.2460     7.2750 na         1 G1G       0.056900
     49 C37         -5.8540     0.7330     8.0040 c3         1 G1G       0.034600
     50 C15         -5.5580    -1.2420     6.4530 cd         1 G1G      -0.289900
     51 C16         -6.8780    -1.6850     6.1560 c          1 G1G       0.788100
     52 O16         -7.9330    -1.2650     6.5890 o          1 G1G      -0.603500
     53 HN31        -1.4710    -6.3090     1.9560 hn         1 G1G       0.308500
     54 H321         1.5950    -4.9180     1.1380 hn         1 G1G       0.434300
     55 H322         0.7950    -6.2910     1.7620 hn         1 G1G       0.434300
     56 H38         -3.6780    -0.3880     0.9680 h5         1 G1G       0.157100
     57 H41          0.0920    -0.9790     0.5070 h2         1 G1G       0.090700
     58 H42         -2.0990    -0.1490    -1.4370 h1         1 G1G       0.078700
     59 H461        -1.7570    -1.2450    -3.4460 h1         1 G1G       0.028367
     60 H462        -0.1190    -1.8160    -3.8150 h1         1 G1G       0.028367
     61 H463        -0.4610    -0.0800    -3.7800 h1         1 G1G       0.028367
     62 H43         -0.8460     1.8540    -1.9940 h1         1 G1G       0.059700
     63 HO43         1.2650     0.6550    -1.7060 ho         1 G1G       0.399000
     64 H44         -0.4150     2.5220     0.6250 h1         1 G1G       0.116700
     65 H451        -3.0820     1.6370    -0.5690 h1         1 G1G       0.013200
     66 H452        -2.3730     3.2460    -0.6240 h1         1 G1G       0.013200
     67 H251        -2.3000     0.8530     4.2310 h1         1 G1G       0.054200
     68 H252        -0.7780     1.5030     3.6510 h1         1 G1G       0.054200
     69 H24          0.4650     0.3810     5.4650 h1         1 G1G       0.101700
     70 H23         -0.3450    -0.9010     3.2090 h1         1 G1G       0.087700
     71 HO23         0.5930    -2.8350     4.2550 ho         1 G1G       0.405000
     72 H22         -2.5390    -1.3930     3.9500 h1         1 G1G       0.108700
     73 HO22        -2.6250    -3.5590     4.3800 ho         1 G1G       0.445000
     74 H21         -1.7050    -2.4120     6.6720 h2         1 G1G       0.075700
     75 H121        -5.0810    -4.6190     3.2770 hn         1 G1G       0.472800
     76 H122        -6.7880    -4.5770     3.5500 hn         1 G1G       0.472800
     77 HN11        -7.7280    -3.0980     4.9470 hn         1 G1G       0.324500
     78 H18         -3.1070     0.4200     7.7070 h5         1 G1G       0.258000
     79 H371        -5.1760     1.3740     8.5570 h1         1 G1G       0.084367
     80 H372        -6.4240     1.3370     7.3050 h1         1 G1G       0.084367
     81 H373        -6.5250     0.2300     8.6930 h1         1 G1G       0.084367
     82 C46         -0.6900    -1.0410    -3.3090 c3         1 G1G       0.123700
@<TRIPOS>BOND
     1     1     2 2   
     2     2     3 1   
     3     2     7 1   
     4     3     4 1   
     5     3    53 1   
     6     4     5 1   
     7     4     6 2   
     8     5    54 1   
     9     5    55 1   
    10     6     8 1   
    11     7     8 2   
    12     7     9 1   
    13     8    11 1   
    14     9    10 2   
    15    10    11 1   
    16    10    56 1   
    17    11    12 1   
    18    12    13 1   
    19    12    14 1   
    20    12    57 1   
    21    13    18 1   
    22    14    15 1   
    23    14    16 1   
    24    14    58 1   
    25    15    82 1   
    26    16    17 1   
    27    16    18 1   
    28    16    62 1   
    29    17    63 1   
    30    18    19 1   
    31    18    64 1   
    32    19    20 1   
    33    19    65 1   
    34    19    66 1   
    35    20    21 1   
    36    21    22 1   
    37    21    23 1   
    38    21    24 1   
    39    24    25 1   
    40    25    26 1   
    41    25    27 1   
    42    25    28 1   
    43    28    29 1   
    44    29    30 1   
    45    29    31 1   
    46    29    32 1   
    47    32    33 1   
    48    33    34 1   
    49    33    67 1   
    50    33    68 1   
    51    34    35 1   
    52    34    39 1   
    53    34    69 1   
    54    35    36 1   
    55    35    37 1   
    56    35    70 1   
    57    36    71 1   
    58    37    38 1   
    59    37    40 1   
    60    37    72 1   
    61    38    73 1   
    62    39    40 1   
    63    40    41 1   
    64    40    74 1   
    65    41    42 1   
    66    41    47 2   
    67    42    43 1   
    68    42    50 2   
    69    43    44 2   
    70    44    45 1   
    71    44    46 1   
    72    45    75 1   
    73    45    76 1   
    74    46    51 1   
    75    46    77 1   
    76    47    48 1   
    77    47    78 1   
    78    48    49 1   
    79    48    50 1   
    80    49    79 1   
    81    49    80 1   
    82    49    81 1   
    83    50    51 1   
    84    51    52 2   
    85    59    82 1   
    86    60    82 1   
    87    61    82 1   
@<TRIPOS>SUBSTRUCTURE
     1 G1G         1 TEMP              0 ****  ****    0 ROOT
