@<TRIPOS>MOLECULE
G1H
   42    44     1     0     0
SMALL
bcc


@<TRIPOS>ATOM
      1 C1           2.6220    -0.9600     0.2680 ca         1 G1H       0.020000
      2 C2           1.3090    -1.2730    -0.0180 ca         1 G1H      -0.216200
      3 C3           0.3560    -0.2680    -0.1740 ca         1 G1H       0.239100
      4 C5           2.0740     1.3760     0.1800 ca         1 G1H       0.045000
      5 C4           0.7480     1.0580    -0.0760 ca         1 G1H      -0.269600
      6 C6           3.0090     0.3720     0.3560 ca         1 G1H      -0.245300
      7 N8           0.9650    -2.6740    -0.1840 no         1 G1H       0.324200
      8 O9           1.4440    -3.4590     0.5970 o          1 G1H      -0.189500
      9 C7           4.4290     0.7170     0.6890 c3         1 G1H       0.733200
     10 F28          4.7980     1.8760     0.1390 f          1 G1H      -0.226967
     11 F27          4.6010     0.8390     2.0110 f          1 G1H      -0.226967
     12 F29          5.2830    -0.2180     0.2680 f          1 G1H      -0.226967
     13 O11         -0.9270    -0.5880    -0.3890 os         1 G1H      -0.332700
     14 C12         -1.8580     0.3980    -0.4410 cc         1 G1H       0.902500
     15 N13         -1.5710     1.6550    -0.3740 nd         1 G1H      -0.796100
     16 C14         -0.2900     2.0940    -0.2540 c          1 G1H       0.747100
     17 O15         -0.0090     3.2770    -0.2560 o          1 G1H      -0.519100
     18 N16         -3.0980    -0.0620    -0.6210 nh         1 G1H      -0.715600
     19 C21         -3.6660    -1.2360     0.0960 c6         1 G1H       0.238000
     20 C22         -2.8070    -2.4780     0.2570 c3         1 G1H      -0.094100
     21 C20         -4.1970    -0.7320     1.4410 c6         1 G1H      -0.106400
     22 C19         -5.2280     0.3810     1.2730 c6         1 G1H      -0.077400
     23 C18         -4.7380     1.4890     0.3440 c6         1 G1H      -0.106400
     24 C17         -4.1830     0.8940    -0.9450 c6         1 G1H       0.238000
     25 C23         -3.8710     1.9130    -2.0290 c3         1 G1H      -0.094100
     26 H1           3.3400    -1.7590     0.3940 ha         1 G1H       0.183000
     27 H2           2.3480     2.4200     0.2450 ha         1 G1H       0.184000
     28 H5          -4.5170    -1.5330    -0.5230 h1         1 G1H       0.059200
     29 H6          -2.0220    -2.3640     1.0020 hc         1 G1H       0.054367
     30 H7          -3.4680    -3.2720     0.6050 hc         1 G1H       0.054367
     31 H8          -2.3700    -2.8050    -0.6830 hc         1 G1H       0.054367
     32 H9          -4.6410    -1.5720     1.9800 hc         1 G1H       0.059950
     33 H10         -3.3500    -0.3860     2.0430 hc         1 G1H       0.059950
     34 H11         -6.1460    -0.0490     0.8580 hc         1 G1H       0.046200
     35 H12         -5.4940     0.7920     2.2490 hc         1 G1H       0.046200
     36 H13         -5.5610     2.1660     0.1020 hc         1 G1H       0.059950
     37 H14         -3.9640     2.0910     0.8270 hc         1 G1H       0.059950
     38 H15         -4.9550     0.2450    -1.3700 h1         1 G1H       0.059200
     39 H16         -3.3240     1.4600    -2.8560 hc         1 G1H       0.054367
     40 H17         -4.8210     2.2730    -2.4250 hc         1 G1H       0.054367
     41 H18         -3.3080     2.7680    -1.6660 hc         1 G1H       0.054367
     42 OXT          0.2490    -2.9630    -1.1100 o          1 G1H      -0.189500
@<TRIPOS>BOND
     1     1     2 ar  
     2     1     6 ar  
     3     1    26 1   
     4     2     3 ar  
     5     2     7 1   
     6     3     5 ar  
     7     3    13 1   
     8     4     5 ar  
     9     4     6 ar  
    10     4    27 1   
    11     5    16 1   
    12     6     9 1   
    13     7     8 1   
    14     7    42 1   
    15     9    10 1   
    16     9    11 1   
    17     9    12 1   
    18    13    14 1   
    19    14    15 2   
    20    14    18 1   
    21    15    16 1   
    22    16    17 2   
    23    18    19 1   
    24    18    24 1   
    25    19    20 1   
    26    19    21 1   
    27    19    28 1   
    28    20    29 1   
    29    20    30 1   
    30    20    31 1   
    31    21    22 1   
    32    21    32 1   
    33    21    33 1   
    34    22    23 1   
    35    22    34 1   
    36    22    35 1   
    37    23    24 1   
    38    23    36 1   
    39    23    37 1   
    40    24    25 1   
    41    24    38 1   
    42    25    39 1   
    43    25    40 1   
    44    25    41 1   
@<TRIPOS>SUBSTRUCTURE
     1 G1H         1 TEMP              0 ****  ****    0 ROOT
