@<TRIPOS>MOLECULE
G1H
   42    44     1     0     0
SMALL
No Charge or Current Charge


@<TRIPOS>ATOM
      1 C1           2.7850    -0.5410    -0.8380 ca         1 G1H       0.038000
      2 C2           1.4390    -0.8940    -1.0710 ca         1 G1H      -0.216200
      3 C3           0.4080    -0.2900    -0.3230 ca         1 G1H       0.239100
      4 C5           2.0740     1.0350     0.8670 ca         1 G1H       0.063000
      5 C4           0.7340     0.6680     0.6360 ca         1 G1H      -0.269600
      6 C6           3.1100     0.4330     0.1260 ca         1 G1H      -0.245300
      7 N8           1.1290    -1.9120    -2.1060 no         1 G1H       0.704200
      8 O9           1.9090    -2.8660    -2.2180 o          1 G1H      -0.379500
      9 C7           4.5700     0.8160     0.3840 c3         1 G1H       0.369300
     10 F28          4.7010     2.0980     0.7960 f          1 G1H      -0.105667
     11 F27          5.1190     0.0350     1.3410 f          1 G1H      -0.105667
     12 F29          5.3390     0.6860    -0.7210 f          1 G1H      -0.105667
     13 O11         -0.8900    -0.6960    -0.5420 os         1 G1H      -0.332700
     14 C12         -1.8660    -0.0640     0.1970 cc         1 G1H       0.902500
     15 N13         -1.6290     0.8550     1.0980 nd         1 G1H      -0.796100
     16 C14         -0.3600     1.2780     1.3950 c          1 G1H       0.747100
     17 O15         -0.1890     2.1270     2.2530 o          1 G1H      -0.519100
     18 N16         -3.1430    -0.4610    -0.0950 nh         1 G1H      -0.715600
     19 C21         -4.0190    -1.0640     0.9470 c6         1 G1H       0.238000
     20 C22         -3.2290    -1.9400     1.9570 c3         1 G1H      -0.094100
     21 C20         -4.8590     0.0370     1.6490 c6         1 G1H      -0.106400
     22 C19         -5.6680     0.8630     0.6180 c6         1 G1H      -0.077400
     23 C18         -4.7450     1.3960    -0.5070 c6         1 G1H      -0.106400
     24 C17         -3.9220     0.2460    -1.1480 c6         1 G1H       0.238000
     25 C23         -3.0340     0.7550    -2.3170 c3         1 G1H      -0.094100
     26 H1           3.5770    -1.0210    -1.4140 ha         1 G1H       0.165000
     27 H2           2.3080     1.7810     1.6270 ha         1 G1H       0.166000
     28 H5          -4.7240    -1.7450     0.4460 h1         1 G1H       0.059200
     29 H6          -2.5560    -1.3430     2.5840 hc         1 G1H       0.054367
     30 H7          -3.9150    -2.4690     2.6280 hc         1 G1H       0.054367
     31 H8          -2.6300    -2.6970     1.4370 hc         1 G1H       0.054367
     32 H9          -5.5440    -0.4210     2.3750 hc         1 G1H       0.059950
     33 H10         -4.2000     0.7040     2.2220 hc         1 G1H       0.059950
     34 H11         -6.4560     0.2340     0.1800 hc         1 G1H       0.046200
     35 H12         -6.1760     1.6990     1.1180 hc         1 G1H       0.046200
     36 H13         -5.3510     1.8960    -1.2740 hc         1 G1H       0.059950
     37 H14         -4.0660     2.1570    -0.0980 hc         1 G1H       0.059950
     38 H15         -4.6330    -0.4670    -1.5910 h1         1 G1H       0.059200
     39 H16         -2.4650    -0.0670    -2.7680 hc         1 G1H       0.054367
     40 H17         -3.6520     1.1950    -3.1090 hc         1 G1H       0.054367
     41 H18         -2.3250     1.5240    -1.9900 hc         1 G1H       0.054367
     42 OXT          0.2350    -1.6580    -2.9230 o          1 G1H      -0.379500
@<TRIPOS>BOND
     1     1     2 ar  
     2     1     6 ar  
     3     1    26 1   
     4     2     3 ar  
     5     2     7 1   
     6     3     5 ar  
     7     3    13 1   
     8     4     5 ar  
     9     4     6 ar  
    10     4    27 1   
    11     5    16 1   
    12     6     9 1   
    13     7     8 1   
    14     7    42 1   
    15     9    10 1   
    16     9    11 1   
    17     9    12 1   
    18    13    14 1   
    19    14    15 2   
    20    14    18 1   
    21    15    16 1   
    22    16    17 2   
    23    18    19 1   
    24    18    24 1   
    25    19    20 1   
    26    19    21 1   
    27    19    28 1   
    28    20    29 1   
    29    20    30 1   
    30    20    31 1   
    31    21    22 1   
    32    21    32 1   
    33    21    33 1   
    34    22    23 1   
    35    22    34 1   
    36    22    35 1   
    37    23    24 1   
    38    23    36 1   
    39    23    37 1   
    40    24    25 1   
    41    24    38 1   
    42    25    39 1   
    43    25    40 1   
    44    25    41 1   
@<TRIPOS>SUBSTRUCTURE
     1 G1H         1 TEMP              0 ****  ****    0 ROOT
