@<TRIPOS>MOLECULE
G1I
   30    31     1     0     0
SMALL
No Charge or Current Charge


@<TRIPOS>ATOM
      1 CAA         -1.2590   -11.9990   -46.4030 ca         1 G1I      -0.096000
      2 CAB          0.0330   -11.8450   -45.8770 ca         1 G1I      -0.161000
      3 CAC          1.1230   -11.6690   -46.7390 ca         1 G1I       0.047100
      4 CAD          0.9220   -11.6620   -48.1330 ca         1 G1I       0.115100
      5 CAE         -0.3740   -11.8280   -48.6770 ca         1 G1I      -0.066300
      6 CAF         -1.4840   -11.9730   -47.7990 ca         1 G1I      -0.096300
      7 CAG         -0.5610   -11.8340   -50.2050 c6         1 G1I      -0.025100
      8 CAH         -1.9200   -12.3950   -50.6700 c6         1 G1I      -0.074400
      9 CAI         -3.0670   -11.7630   -49.8540 c6         1 G1I       0.171500
     10 CAJ         -2.9180   -12.1560   -48.3460 c6         1 G1I       0.218600
     11 NAN         -4.4070   -12.1400   -50.3810 n7         1 G1I      -0.865400
     12 OAK          2.0130   -11.4920   -48.9400 oh         1 G1I      -0.538100
     13 OAL          2.3840   -11.5120   -46.2280 oh         1 G1I      -0.559100
     14 OAM         -3.8720   -11.4140   -47.5610 oh         1 G1I      -0.664000
     15 H1          -2.0870   -12.1410   -45.7130 ha         1 G1I       0.112000
     16 H2           0.1780   -11.8620   -44.7990 ha         1 G1I       0.113000
     17 H3           0.2390   -12.4160   -50.6820 hc         1 G1I       0.059200
     18 H4          -0.4500   -10.8050   -50.5750 hc         1 G1I       0.059200
     19 H5          -2.0420   -12.1940   -51.7430 hc         1 G1I       0.051200
     20 H6          -1.9350   -13.4870   -50.5500 hc         1 G1I       0.051200
     21 H7          -2.9690   -10.6680   -49.9200 h1         1 G1I       0.040700
     22 H8          -3.1450   -13.2310   -48.2680 h1         1 G1I       0.052700
     23 H9          -5.8540   -11.8430   -51.9100 h1         1 G1I       0.028700
     24 H10         -4.8340   -10.4270   -51.5750 h1         1 G1I       0.028700
     25 H11         -4.1740   -11.8110   -52.4790 h1         1 G1I       0.028700
     26 H12         -5.0850   -11.8590   -49.6600 hn         1 G1I       0.420000
     27 H14          2.7800   -11.4020   -48.3300 ho         1 G1I       0.481000
     28 H15          2.3350   -11.5440   -45.2460 ho         1 G1I       0.475000
     29 H16         -3.8770   -11.8220   -46.6700 ho         1 G1I       0.444000
     30 CAO         -4.8360   -11.5230   -51.6520 c3         1 G1I       0.148100
@<TRIPOS>BOND
     1     1     2 ar  
     2     1     6 ar  
     3     1    15 1   
     4     2     3 ar  
     5     2    16 1   
     6     3     4 ar  
     7     3    13 1   
     8     4     5 ar  
     9     4    12 1   
    10     5     6 ar  
    11     5     7 1   
    12     6    10 1   
    13     7     8 1   
    14     7    17 1   
    15     7    18 1   
    16     8     9 1   
    17     8    19 1   
    18     8    20 1   
    19     9    10 1   
    20     9    11 1   
    21     9    21 1   
    22    10    14 1   
    23    10    22 1   
    24    11    26 1   
    25    11    30 1   
    26    12    27 1   
    27    13    28 1   
    28    14    29 1   
    29    23    30 1   
    30    24    30 1   
    31    25    30 1   
@<TRIPOS>SUBSTRUCTURE
     1 G1I         1 TEMP              0 ****  ****    0 ROOT
