@<TRIPOS>MOLECULE
G1I
   30    31     1     0     0
SMALL
bcc


@<TRIPOS>ATOM
      1 CAA         -1.2880   -11.9700   -46.4410 ca         1 G1I      -0.114000
      2 CAB         -0.0180   -11.8080   -45.9090 ca         1 G1I      -0.179000
      3 CAC          1.0690   -11.6490   -46.7530 ca         1 G1I       0.047100
      4 CAD          0.8740   -11.6600   -48.1360 ca         1 G1I       0.115100
      5 CAE         -0.3990   -11.8400   -48.6750 ca         1 G1I      -0.066300
      6 CAF         -1.4940   -11.9860   -47.8160 ca         1 G1I      -0.096300
      7 CAG         -0.5660   -11.8470   -50.1710 c6         1 G1I      -0.025100
      8 CAH         -1.9230   -12.3760   -50.6070 c6         1 G1I      -0.074400
      9 CAI         -3.0400   -11.7340   -49.7990 c6         1 G1I       0.171500
     10 CAJ         -2.9010   -12.1890   -48.3520 c6         1 G1I       0.195400
     11 NAN         -4.3510   -12.1140   -50.2900 n7         1 G1I      -0.810200
     12 OAK          1.9150   -11.4940   -48.9840 oh         1 G1I      -0.499100
     13 OAL          2.3460   -11.4760   -46.3320 oh         1 G1I      -0.520100
     14 OAM         -3.8550   -11.4920   -47.5730 oh         1 G1I      -0.601800
     15 H1          -2.1200   -12.0850   -45.7590 ha         1 G1I       0.130000
     16 H2           0.1260   -11.8010   -44.8340 ha         1 G1I       0.131000
     17 H3           0.2240   -12.4390   -50.6380 hc         1 G1I       0.059200
     18 H4          -0.4330   -10.8280   -50.5520 hc         1 G1I       0.059200
     19 H5          -2.0520   -12.1840   -51.6730 hc         1 G1I       0.051200
     20 H6          -1.9690   -13.4630   -50.4770 hc         1 G1I       0.051200
     21 H7          -2.8960   -10.6370   -49.8310 h1         1 G1I       0.040700
     22 H8          -3.1260   -13.2650   -48.3370 h1         1 G1I       0.052700
     23 H9          -5.7600   -11.6970   -51.7640 h1         1 G1I       0.028700
     24 H10         -4.5530   -10.4170   -51.5870 h1         1 G1I       0.028700
     25 H11         -4.1360   -11.9380   -52.3780 h1         1 G1I       0.028700
     26 H12         -5.0360   -11.8310   -49.6000 hn         1 G1I       0.364800
     27 H14          2.7380   -11.4050   -48.4880 ho         1 G1I       0.442000
     28 H15          2.3980   -11.5040   -45.3710 ho         1 G1I       0.436000
     29 H16         -4.2070   -12.0830   -46.9020 ho         1 G1I       0.405000
     30 CAO         -4.7080   -11.5050   -51.5560 c3         1 G1I       0.148100
@<TRIPOS>BOND
     1     1     2 ar  
     2     1     6 ar  
     3     1    15 1   
     4     2     3 ar  
     5     2    16 1   
     6     3     4 ar  
     7     3    13 1   
     8     4     5 ar  
     9     4    12 1   
    10     5     6 ar  
    11     5     7 1   
    12     6    10 1   
    13     7     8 1   
    14     7    17 1   
    15     7    18 1   
    16     8     9 1   
    17     8    19 1   
    18     8    20 1   
    19     9    10 1   
    20     9    11 1   
    21     9    21 1   
    22    10    14 1   
    23    10    22 1   
    24    11    26 1   
    25    11    30 1   
    26    12    27 1   
    27    13    28 1   
    28    14    29 1   
    29    23    30 1   
    30    24    30 1   
    31    25    30 1   
@<TRIPOS>SUBSTRUCTURE
     1 G1I         1 TEMP              0 ****  ****    0 ROOT
