@<TRIPOS>MOLECULE
G1J
   71    73     1     0     0
SMALL
bcc


@<TRIPOS>ATOM
      1 C12          1.5490     0.5270     0.0420 c3         1 G1J      -0.071600
      2 C13          1.8570     1.7120     0.9600 c3         1 G1J      -0.015100
      3 C14          3.2840     2.1670     0.8190 ca         1 G1J      -0.100300
      4 C15          3.7090     2.8190    -0.3380 ca         1 G1J      -0.125500
      5 C16          5.0340     3.2040    -0.4900 ca         1 G1J      -0.128500
      6 C17          5.9550     2.9420     0.5160 ca         1 G1J      -0.113000
      7 C18          5.5430     2.2970     1.6730 ca         1 G1J      -0.128500
      8 C19          4.2170     1.9080     1.8190 ca         1 G1J      -0.125500
      9 C20          2.4430    -0.6540     0.3760 c          1 G1J       0.690100
     10 C23          4.0720    -2.2430    -0.5500 c3         1 G1J       0.150300
     11 C24          5.5290    -1.8800    -0.6920 ca         1 G1J      -0.222600
     12 C25          6.0050    -0.5840    -0.5340 ca         1 G1J       0.412200
     13 C29          6.4620    -2.8730    -0.9740 ca         1 G1J      -0.091000
     14 C30         -3.3080     2.0770    -1.3150 c3         1 G1J      -0.053100
     15 C32         -5.2840     2.7550     0.0840 ca         1 G1J      -0.115500
     16 C33         -6.6300     2.6930     0.4090 ca         1 G1J      -0.125500
     17 C34         -7.4970     1.9200    -0.3540 ca         1 G1J      -0.125000
     18 C35         -7.0060     1.2180    -1.4460 ca         1 G1J      -0.125500
     19 C01         -6.6440    -1.9830     0.7370 c3         1 G1J      -0.108433
     20 C02         -5.3480    -2.7590     0.5360 c3         1 G1J       0.201800
     21 C03         -4.7810    -3.2770     1.8530 c3         1 G1J      -0.108433
     22 C04         -5.5840    -3.9280    -0.4130 c3         1 G1J      -0.108433
     23 C06         -3.8820    -0.8180     0.3190 c          1 G1J       0.772100
     24 C09         -2.5260     1.0850    -0.4380 c3         1 G1J       0.134700
     25 C27          8.1640    -1.2120    -0.8970 ca         1 G1J       0.399200
     26 C28          7.8010    -2.5390    -1.0760 ca         1 G1J      -0.245300
     27 C31         -4.7780     2.0520    -1.0080 ca         1 G1J      -0.085300
     28 C36         -5.6570     1.2850    -1.7680 ca         1 G1J      -0.115500
     29 N08         -3.0350    -0.2580    -0.5780 ns         1 G1J      -0.563900
     30 N22          3.1750    -1.1220    -0.6480 ns         1 G1J      -0.566900
     31 N26          7.2880    -0.2520    -0.6340 nb         1 G1J      -0.666000
     32 O05         -4.3750    -1.9520    -0.1770 os         1 G1J      -0.455900
     33 O07         -4.1180    -0.3610     1.4170 o          1 G1J      -0.586000
     34 O21          2.4620    -1.1230     1.5030 o          1 G1J      -0.581100
     35 S11         -0.1590    -0.0800     0.2520 ss         1 G1J      -0.250200
     36 H1           1.6730     0.8200    -1.0050 h1         1 G1J       0.063700
     37 H2           1.1740     2.5290     0.7170 hc         1 G1J       0.067200
     38 H3           1.6520     1.4240     1.9910 hc         1 G1J       0.067200
     39 H4           2.9960     3.0300    -1.1270 ha         1 G1J       0.131000
     40 H5           5.3480     3.7080    -1.3950 ha         1 G1J       0.133000
     41 H6           6.9900     3.2370     0.3970 ha         1 G1J       0.136000
     42 H7           6.2550     2.0880     2.4610 ha         1 G1J       0.133000
     43 H8           3.9010     1.3970     2.7210 ha         1 G1J       0.131000
     44 H9           3.8100    -2.9810    -1.3120 h1         1 G1J       0.068700
     45 H10          3.9090    -2.7240     0.4140 h1         1 G1J       0.068700
     46 H11          5.3210     0.2300    -0.3190 h4         1 G1J       0.030100
     47 H12          6.1420    -3.8990    -1.1160 ha         1 G1J       0.135000
     48 H13         -2.9040     3.0790    -1.1490 hc         1 G1J       0.051200
     49 H14         -3.1380     1.8330    -2.3670 hc         1 G1J       0.051200
     50 H15         -4.6130     3.3560     0.6870 ha         1 G1J       0.127000
     51 H16         -7.0050     3.2470     1.2600 ha         1 G1J       0.130000
     52 H17         -8.5480     1.8700    -0.1020 ha         1 G1J       0.130000
     53 H18         -7.6730     0.6150    -2.0490 ha         1 G1J       0.130000
     54 H19         -7.0120    -1.5860    -0.2100 hc         1 G1J       0.048922
     55 H20         -7.4040    -2.6530     1.1400 hc         1 G1J       0.048922
     56 H21         -6.5270    -1.1530     1.4300 hc         1 G1J       0.048922
     57 H22         -5.4410    -4.0510     2.2470 hc         1 G1J       0.048922
     58 H23         -3.7980    -3.7280     1.7050 hc         1 G1J       0.048922
     59 H24         -4.6940    -2.4980     2.6070 hc         1 G1J       0.048922
     60 H25         -5.9630    -3.5890    -1.3780 hc         1 G1J       0.048922
     61 H26         -4.6660    -4.4940    -0.5820 hc         1 G1J       0.048922
     62 H27         -6.3210    -4.6080     0.0150 hc         1 G1J       0.048922
     63 H28         -2.6480     1.3690     0.6080 h1         1 G1J       0.101700
     64 H29         -0.8690     0.9170    -1.8310 h1         1 G1J       0.060700
     65 H30         -0.6620     2.1340    -0.5670 h1         1 G1J       0.060700
     66 H31          9.2050    -0.9150    -0.9730 h4         1 G1J       0.018100
     67 H32          8.5500    -3.2880    -1.2940 ha         1 G1J       0.142000
     68 H33         -5.2850     0.7390    -2.6270 ha         1 G1J       0.127000
     69 H34         -2.9800    -0.6770    -1.4940 hn         1 G1J       0.316500
     70 H35          3.0810    -0.6800    -1.5480 hn         1 G1J       0.315500
     71 C10         -1.0420     1.1320    -0.7740 c3         1 G1J      -0.017300
@<TRIPOS>BOND
     1     1     2 1   
     2     1     9 1   
     3     1    35 1   
     4     1    36 1   
     5     2     3 1   
     6     2    37 1   
     7     2    38 1   
     8     3     4 ar  
     9     3     8 ar  
    10     4     5 ar  
    11     4    39 1   
    12     5     6 ar  
    13     5    40 1   
    14     6     7 ar  
    15     6    41 1   
    16     7     8 ar  
    17     7    42 1   
    18     8    43 1   
    19     9    30 1   
    20     9    34 2   
    21    10    11 1   
    22    10    30 1   
    23    10    44 1   
    24    10    45 1   
    25    11    12 ar  
    26    11    13 ar  
    27    12    31 ar  
    28    12    46 1   
    29    13    26 ar  
    30    13    47 1   
    31    14    24 1   
    32    14    27 1   
    33    14    48 1   
    34    14    49 1   
    35    15    16 ar  
    36    15    27 ar  
    37    15    50 1   
    38    16    17 ar  
    39    16    51 1   
    40    17    18 ar  
    41    17    52 1   
    42    18    28 ar  
    43    18    53 1   
    44    19    20 1   
    45    19    54 1   
    46    19    55 1   
    47    19    56 1   
    48    20    21 1   
    49    20    22 1   
    50    20    32 1   
    51    21    57 1   
    52    21    58 1   
    53    21    59 1   
    54    22    60 1   
    55    22    61 1   
    56    22    62 1   
    57    23    29 1   
    58    23    32 1   
    59    23    33 2   
    60    24    29 1   
    61    24    63 1   
    62    24    71 1   
    63    25    26 ar  
    64    25    31 ar  
    65    25    66 1   
    66    26    67 1   
    67    27    28 ar  
    68    28    68 1   
    69    29    69 1   
    70    30    70 1   
    71    35    71 1   
    72    64    71 1   
    73    65    71 1   
@<TRIPOS>SUBSTRUCTURE
     1 G1J         1 TEMP              0 ****  ****    0 ROOT
