@<TRIPOS>MOLECULE
G1J
   71    73     1     0     0
SMALL
No Charge or Current Charge


@<TRIPOS>ATOM
      1 C12          1.5600     0.4690     0.2250 c3         1 G1J      -0.023700
      2 C13          2.1640     1.8550     0.5530 c3         1 G1J      -0.015100
      3 C14          3.5650     2.0140    -0.0280 ca         1 G1J      -0.100300
      4 C15          3.7430     2.1670    -1.4170 ca         1 G1J      -0.107500
      5 C16          5.0350     2.2890    -1.9560 ca         1 G1J      -0.110500
      6 C17          6.1570     2.2630    -1.1110 ca         1 G1J      -0.095000
      7 C18          5.9850     2.1110     0.2750 ca         1 G1J      -0.110500
      8 C19          4.6930     1.9840     0.8150 ca         1 G1J      -0.107500
      9 C20          2.4810    -0.6630     0.7390 c          1 G1J       0.623100
     10 C23          4.0550    -2.4730    -0.0020 c3         1 G1J       0.150300
     11 C24          5.4460    -1.8870     0.1540 ca         1 G1J      -0.157300
     12 C25          6.0150    -1.7290     1.4340 ca         1 G1J       0.346900
     13 C29          6.1890    -1.4820    -0.9700 ca         1 G1J      -0.073000
     14 C30         -3.4170     2.2990    -0.9190 c3         1 G1J      -0.053100
     15 C32         -5.5580     2.7830     0.3670 ca         1 G1J      -0.097500
     16 C33         -6.9470     2.6570     0.5470 ca         1 G1J      -0.107500
     17 C34         -7.7140     1.9310    -0.3790 ca         1 G1J      -0.107000
     18 C35         -7.0920     1.3330    -1.4880 ca         1 G1J      -0.107500
     19 C01         -6.6450    -2.1830     0.2940 c3         1 G1J      -0.108433
     20 C02         -5.2560    -2.8720     0.3080 c3         1 G1J       0.225000
     21 C03         -4.8490    -3.3940     1.7110 c3         1 G1J      -0.108433
     22 C04         -5.2340    -4.0320    -0.7120 c3         1 G1J      -0.108433
     23 C06         -3.9840    -0.7640     0.4470 c          1 G1J       0.656100
     24 C09         -2.6270     1.2870    -0.0540 c3         1 G1J       0.134700
     25 C27          7.9610    -0.8320     0.5510 ca         1 G1J       0.333900
     26 C28          7.4700    -0.9470    -0.7610 ca         1 G1J      -0.162000
     27 C31         -4.9280     2.1850    -0.7410 ca         1 G1J      -0.085300
     28 C36         -5.7030     1.4600    -1.6690 ca         1 G1J      -0.097500
     29 N08         -3.0800    -0.0840    -0.3160 ns         1 G1J      -0.496900
     30 N22          3.0700    -1.4230    -0.2480 ns         1 G1J      -0.499900
     31 N26          7.2520    -1.2160     1.6380 nb         1 G1J      -0.666000
     32 O05         -4.2560    -1.9490    -0.1800 os         1 G1J      -0.479100
     33 O07         -4.4560    -0.3580     1.4970 o          1 G1J      -0.537000
     34 O21          2.6790    -0.8810     1.9280 o          1 G1J      -0.581100
     35 S11         -0.1660     0.3170     0.9110 ss         1 G1J      -0.346000
     36 H1           1.4890     0.3680    -0.8650 h1         1 G1J       0.063700
     37 H2           1.5140     2.6420     0.1540 hc         1 G1J       0.067200
     38 H3           2.1780     1.9930     1.6410 hc         1 G1J       0.067200
     39 H4           2.8810     2.1880    -2.0800 ha         1 G1J       0.113000
     40 H5           5.1670     2.4050    -3.0300 ha         1 G1J       0.115000
     41 H6           7.1570     2.3570    -1.5280 ha         1 G1J       0.118000
     42 H7           6.8520     2.0860     0.9310 ha         1 G1J       0.115000
     43 H8           4.5730     1.8570     1.8890 ha         1 G1J       0.113000
     44 H9           4.0440    -3.1730    -0.8490 h1         1 G1J       0.068700
     45 H10          3.7740    -3.0370     0.8980 h1         1 G1J       0.068700
     46 H11          5.4660    -2.0270     2.3270 h4         1 G1J       0.030100
     47 H12          5.7850    -1.5780    -1.9750 ha         1 G1J       0.117000
     48 H13         -3.0910     3.3150    -0.6650 hc         1 G1J       0.051200
     49 H14         -3.1510     2.1520    -1.9730 hc         1 G1J       0.051200
     50 H15         -4.9710     3.3400     1.0940 ha         1 G1J       0.109000
     51 H16         -7.4270     3.1190     1.4070 ha         1 G1J       0.112000
     52 H17         -8.7880     1.8320    -0.2380 ha         1 G1J       0.112000
     53 H18         -7.6830     0.7690    -2.2050 ha         1 G1J       0.112000
     54 H19         -6.8260    -1.6920    -0.6700 hc         1 G1J       0.048922
     55 H20         -7.4400    -2.9220     0.4520 hc         1 G1J       0.048922
     56 H21         -6.7390    -1.4310     1.0850 hc         1 G1J       0.048922
     57 H22         -5.4600    -4.2610     1.9870 hc         1 G1J       0.048922
     58 H23         -3.7970    -3.7050     1.7200 hc         1 G1J       0.048922
     59 H24         -4.9930    -2.6370     2.4890 hc         1 G1J       0.048922
     60 H25         -5.4750    -3.6710    -1.7190 hc         1 G1J       0.048922
     61 H26         -4.2440    -4.5030    -0.7450 hc         1 G1J       0.048922
     62 H27         -5.9670    -4.8020    -0.4430 hc         1 G1J       0.048922
     63 H28         -2.8340     1.5230     1.0000 h1         1 G1J       0.101700
     64 H29         -0.8400     1.1530    -1.2870 h1         1 G1J       0.060700
     65 H30         -0.7980     2.4580    -0.0780 h1         1 G1J       0.060700
     66 H31          8.9510    -0.4190     0.7380 h4         1 G1J       0.018100
     67 H32          8.0790    -0.6200    -1.5990 ha         1 G1J       0.124000
     68 H33         -5.2290     0.9860    -2.5250 ha         1 G1J       0.109000
     69 H34         -2.7710    -0.5540    -1.1550 hn         1 G1J       0.316500
     70 H35          2.8580    -1.1760    -1.2070 hn         1 G1J       0.315500
     71 C10         -1.1000     1.4180    -0.2540 c3         1 G1J       0.030600
@<TRIPOS>BOND
     1     1     2 1   
     2     1     9 1   
     3     1    35 1   
     4     1    36 1   
     5     2     3 1   
     6     2    37 1   
     7     2    38 1   
     8     3     4 ar  
     9     3     8 ar  
    10     4     5 ar  
    11     4    39 1   
    12     5     6 ar  
    13     5    40 1   
    14     6     7 ar  
    15     6    41 1   
    16     7     8 ar  
    17     7    42 1   
    18     8    43 1   
    19     9    30 1   
    20     9    34 2   
    21    10    11 1   
    22    10    30 1   
    23    10    44 1   
    24    10    45 1   
    25    11    12 ar  
    26    11    13 ar  
    27    12    31 ar  
    28    12    46 1   
    29    13    26 ar  
    30    13    47 1   
    31    14    24 1   
    32    14    27 1   
    33    14    48 1   
    34    14    49 1   
    35    15    16 ar  
    36    15    27 ar  
    37    15    50 1   
    38    16    17 ar  
    39    16    51 1   
    40    17    18 ar  
    41    17    52 1   
    42    18    28 ar  
    43    18    53 1   
    44    19    20 1   
    45    19    54 1   
    46    19    55 1   
    47    19    56 1   
    48    20    21 1   
    49    20    22 1   
    50    20    32 1   
    51    21    57 1   
    52    21    58 1   
    53    21    59 1   
    54    22    60 1   
    55    22    61 1   
    56    22    62 1   
    57    23    29 1   
    58    23    32 1   
    59    23    33 2   
    60    24    29 1   
    61    24    63 1   
    62    24    71 1   
    63    25    26 ar  
    64    25    31 ar  
    65    25    66 1   
    66    26    67 1   
    67    27    28 ar  
    68    28    68 1   
    69    29    69 1   
    70    30    70 1   
    71    35    71 1   
    72    64    71 1   
    73    65    71 1   
@<TRIPOS>SUBSTRUCTURE
     1 G1J         1 TEMP              0 ****  ****    0 ROOT
