@<TRIPOS>MOLECULE
G1K
   42    44     1     0     0
SMALL
No Charge or Current Charge


@<TRIPOS>ATOM
      1 C1          -3.9470     0.5150    -1.3580 c          1 G1K       0.501200
      2 C10          0.7490    -1.1170    -0.5480 c          1 G1K       0.617100
      3 C11          2.2230    -1.0240    -0.0760 c3         1 G1K       0.079600
      4 C12          4.2940     0.2570    -0.5180 ca         1 G1K       0.151100
      5 C13          5.0320    -0.4600     0.4520 ca         1 G1K      -0.169000
      6 C14          6.3860    -0.1530     0.6730 ca         1 G1K      -0.078000
      7 C15          7.0080     0.8650    -0.0690 ca         1 G1K      -0.157000
      8 C16          6.2790     1.5790    -1.0340 ca         1 G1K      -0.078000
      9 C17          4.9250     1.2730    -1.2550 ca         1 G1K      -0.169000
     10 C2          -3.8100     1.4680    -0.2410 cc         1 G1K      -0.028100
     11 C3          -2.9690     1.2380     0.8600 cd         1 G1K       0.064400
     12 C4          -2.8510     2.2470     2.0070 c          1 G1K       0.735200
     13 C5          -2.3580    -0.8330    -0.1580 cc         1 G1K       0.397900
     14 C6          -1.5570    -2.1380    -0.1530 c5         1 G1K       0.097400
     15 C7          -2.0180    -3.0800     0.9990 c5         1 G1K      -0.091400
     16 C8          -0.7970    -4.0180     1.1520 c5         1 G1K      -0.091400
     17 C9           0.3800    -3.0110     1.1210 c5         1 G1K       0.107000
     18 N1          -2.2290     0.0220     0.8630 nd         1 G1K      -0.541300
     19 N2          -0.0990    -2.0240     0.1290 n          1 G1K      -0.405800
     20 N3          -3.1890    -0.5860    -1.2150 ns         1 G1K      -0.380400
     21 O1          -4.6710     0.6840    -2.3300 o          1 G1K      -0.628000
     22 O2          -4.5960     2.5640    -0.4300 oh         1 G1K      -0.483100
     23 O3          -2.0950     1.9750     2.9340 o          1 G1K      -0.694000
     24 O4          -3.4870     3.2950     2.0070 o          1 G1K      -0.694000
     25 O5           2.9640     0.0010    -0.7790 os         1 G1K      -0.303100
     26 O6           0.3130    -0.4280    -1.4660 o          1 G1K      -0.564100
     27 H1           2.2120    -0.8200     1.0020 h1         1 G1K       0.048700
     28 H2           2.6850    -2.0060    -0.2370 h1         1 G1K       0.048700
     29 H3           4.5750    -1.2510     1.0390 ha         1 G1K       0.124000
     30 H4           6.9540    -0.7050     1.4200 ha         1 G1K       0.106000
     31 H5           8.0560     1.1000     0.1030 ha         1 G1K       0.106000
     32 H6           6.7600     2.3670    -1.6090 ha         1 G1K       0.106000
     33 H7           4.3600     1.8260    -2.0010 ha         1 G1K       0.124000
     34 H8          -1.6870    -2.6440    -1.1190 h1         1 G1K       0.048700
     35 H9          -2.2010    -2.5300     1.9300 hc         1 G1K       0.069700
     36 H10         -2.9400    -3.6200     0.7540 hc         1 G1K       0.069700
     37 H11         -0.8220    -4.6050     2.0770 hc         1 G1K       0.045700
     38 H12         -0.7330    -4.7240     0.3150 hc         1 G1K       0.045700
     39 H13          0.5280    -2.5340     2.1000 h1         1 G1K       0.049700
     40 H14          1.3170    -3.4980     0.8210 h1         1 G1K       0.049700
     41 H15         -3.2480    -1.2630    -1.9620 hn         1 G1K       0.306500
     42 H16         -5.0570     2.4200    -1.2890 ho         1 G1K       0.455000
@<TRIPOS>BOND
     1     1    10 1   
     2     1    20 1   
     3     1    21 2   
     4     2     3 1   
     5     2    19 1   
     6     2    26 2   
     7     3    25 1   
     8     3    27 1   
     9     3    28 1   
    10     4     5 ar  
    11     4     9 ar  
    12     4    25 1   
    13     5     6 ar  
    14     5    29 1   
    15     6     7 ar  
    16     6    30 1   
    17     7     8 ar  
    18     7    31 1   
    19     8     9 ar  
    20     8    32 1   
    21     9    33 1   
    22    10    11 2   
    23    10    22 1   
    24    11    12 1   
    25    11    18 1   
    26    12    23 1   
    27    12    24 1   
    28    13    14 1   
    29    13    18 2   
    30    13    20 1   
    31    14    15 1   
    32    14    19 1   
    33    14    34 1   
    34    15    16 1   
    35    15    35 1   
    36    15    36 1   
    37    16    17 1   
    38    16    37 1   
    39    16    38 1   
    40    17    19 1   
    41    17    39 1   
    42    17    40 1   
    43    20    41 1   
    44    22    42 1   
@<TRIPOS>SUBSTRUCTURE
     1 G1K         1 TEMP              0 ****  ****    0 ROOT
