@<TRIPOS>MOLECULE
G1K
   42    44     1     0     0
SMALL
bcc


@<TRIPOS>ATOM
      1 C1          -3.7940     0.5410    -1.3320 c          1 G1K       0.643700
      2 C10          0.7140    -1.1520    -0.5390 c          1 G1K       0.684100
      3 C11          2.1460    -1.0600    -0.0430 c3         1 G1K       0.056400
      4 C12          4.0760     0.2240    -0.4960 ca         1 G1K       0.151100
      5 C13          4.8360    -0.4540     0.4530 ca         1 G1K      -0.187000
      6 C14          6.1690    -0.1010     0.6420 ca         1 G1K      -0.096000
      7 C15          6.7510     0.9140    -0.0990 ca         1 G1K      -0.175000
      8 C16          5.9830     1.5860    -1.0460 ca         1 G1K      -0.096000
      9 C17          4.6570     1.2480    -1.2460 ca         1 G1K      -0.187000
     10 C2          -3.5880     1.4660    -0.2390 cc         1 G1K      -0.028100
     11 C3          -2.7380     1.1430     0.7780 cd         1 G1K       0.064400
     12 C4          -2.4900     2.0550     1.9750 c          1 G1K       0.945800
     13 C5          -2.1970    -0.8490    -0.2080 cc         1 G1K       0.397900
     14 C6          -1.4650    -2.1660    -0.2320 c5         1 G1K       0.097400
     15 C7          -2.0010    -3.1460     0.8220 c5         1 G1K      -0.091400
     16 C8          -0.7640    -3.9230     1.2540 c5         1 G1K      -0.091400
     17 C9           0.3230    -2.8580     1.2520 c5         1 G1K       0.107000
     18 N1          -2.0550    -0.0410     0.7780 nd         1 G1K      -0.541300
     19 N2          -0.0680    -2.0080     0.1340 n          1 G1K      -0.472800
     20 N3          -3.0400    -0.5970    -1.2400 ns         1 G1K      -0.447400
     21 O1          -4.5640     0.7580    -2.2640 o          1 G1K      -0.703500
     22 O2          -4.3020     2.6010    -0.2900 oh         1 G1K      -0.444100
     23 O3          -2.3310     1.4790     3.0630 o          1 G1K      -0.799300
     24 O4          -2.4640     3.2760     1.7440 o          1 G1K      -0.799300
     25 O5           2.7760    -0.0350    -0.7590 os         1 G1K      -0.279900
     26 O6           0.3080    -0.4980    -1.4850 o          1 G1K      -0.564100
     27 H1           2.1560    -0.8620     1.0360 h1         1 G1K       0.048700
     28 H2           2.6470    -2.0250    -0.2000 h1         1 G1K       0.048700
     29 H3           4.4170    -1.2520     1.0520 ha         1 G1K       0.142000
     30 H4           6.7510    -0.6330     1.3830 ha         1 G1K       0.124000
     31 H5           7.7880     1.1810     0.0550 ha         1 G1K       0.124000
     32 H6           6.4220     2.3820    -1.6340 ha         1 G1K       0.124000
     33 H7           4.0600     1.7700    -1.9830 ha         1 G1K       0.142000
     34 H8          -1.5410    -2.6020    -1.2330 h1         1 G1K       0.048700
     35 H9          -2.4070    -2.5890     1.6680 hc         1 G1K       0.069700
     36 H10         -2.7930    -3.7740     0.4180 hc         1 G1K       0.069700
     37 H11         -0.8790    -4.3940     2.2300 hc         1 G1K       0.045700
     38 H12         -0.5250    -4.7020     0.5280 hc         1 G1K       0.045700
     39 H13          0.3270    -2.2910     2.1880 h1         1 G1K       0.049700
     40 H14          1.3160    -3.2820     1.1050 h1         1 G1K       0.049700
     41 H15         -3.1210    -1.2690    -1.9940 hn         1 G1K       0.306500
     42 H16         -4.8560     2.5640    -1.0830 ho         1 G1K       0.416000
@<TRIPOS>BOND
     1     1    10 1   
     2     1    20 1   
     3     1    21 2   
     4     2     3 1   
     5     2    19 1   
     6     2    26 2   
     7     3    25 1   
     8     3    27 1   
     9     3    28 1   
    10     4     5 ar  
    11     4     9 ar  
    12     4    25 1   
    13     5     6 ar  
    14     5    29 1   
    15     6     7 ar  
    16     6    30 1   
    17     7     8 ar  
    18     7    31 1   
    19     8     9 ar  
    20     8    32 1   
    21     9    33 1   
    22    10    11 2   
    23    10    22 1   
    24    11    12 1   
    25    11    18 1   
    26    12    23 1   
    27    12    24 1   
    28    13    14 1   
    29    13    18 2   
    30    13    20 1   
    31    14    15 1   
    32    14    19 1   
    33    14    34 1   
    34    15    16 1   
    35    15    35 1   
    36    15    36 1   
    37    16    17 1   
    38    16    37 1   
    39    16    38 1   
    40    17    19 1   
    41    17    39 1   
    42    17    40 1   
    43    20    41 1   
    44    22    42 1   
@<TRIPOS>SUBSTRUCTURE
     1 G1K         1 TEMP              0 ****  ****    0 ROOT
