@<TRIPOS>MOLECULE
G1L
   31    31     1     0     0
SMALL
abcg2


@<TRIPOS>ATOM
      1 F23          9.8980    -1.1550    -2.2920 f          1 G1L      -0.115667
      2 C20          8.8990    -1.7430    -2.9560 c3         1 G1L       0.361300
      3 F21          9.0210    -3.0650    -2.7540 f          1 G1L      -0.115667
      4 F22          9.1290    -1.5440    -4.2640 f          1 G1L      -0.115667
      5 C3           7.5560    -1.2390    -2.5480 ca         1 G1L      -0.232300
      6 C2           7.4010    -0.2830    -1.5570 ca         1 G1L      -0.029000
      7 C1           6.1430     0.1760    -1.1930 ca         1 G1L      -0.163000
      8 C4           6.4240    -1.7440    -3.1850 ca         1 G1L      -0.029000
      9 C5           5.1710    -1.2940    -2.8310 ca         1 G1L      -0.163000
     10 C6           5.0090    -0.3270    -1.8320 ca         1 G1L       0.017000
     11 N11          3.7000     0.0570    -1.5500 ns         1 G1L      -0.146000
     12 C12          3.2410     0.9790    -0.6600 c          1 G1L       0.618100
     13 O18          3.9710     1.6230     0.0650 o          1 G1L      -0.556100
     14 C13          1.7130     1.1290    -0.6280 c3         1 G1L      -0.132000
     15 C14          1.0710    -0.2100    -0.2310 c3         1 G1L      -0.085100
     16 C15          1.3220     2.1930     0.3920 c3         1 G1L      -0.085100
     17 C16          1.1830     1.5010    -2.0120 c3         1 G1L       0.123600
     18 CL17         1.9920     2.9630    -2.6750 cl         1 G1L      -0.262000
     19 H2           8.2580     0.1270    -1.0410 ha         1 G1L       0.130000
     20 H1           6.0650     0.9180    -0.4180 ha         1 G1L       0.134500
     21 H4           6.5070    -2.4920    -3.9630 ha         1 G1L       0.130000
     22 H5           4.3020    -1.6940    -3.3380 ha         1 G1L       0.134500
     23 HN11         3.0080    -0.4360    -2.0930 hn         1 G1L       0.150000
     24 H141         1.4600    -0.5520     0.7280 hc         1 G1L       0.049367
     25 H142        -0.0080    -0.0880    -0.1290 hc         1 G1L       0.049367
     26 H143         1.2400    -0.9990    -0.9660 hc         1 G1L       0.049367
     27 H151         1.6390     1.9140     1.3960 hc         1 G1L       0.049367
     28 H152         1.7500     3.1670     0.1600 hc         1 G1L       0.049367
     29 H153         0.2360     2.2970     0.4030 hc         1 G1L       0.049367
     30 H161         1.3230     0.7100    -2.7470 h1         1 G1L       0.066700
     31 H162         0.1180     1.7210    -1.9560 h1         1 G1L       0.066700
@<TRIPOS>BOND
     1     1     2 1   
     2     2     3 1   
     3     2     4 1   
     4     2     5 1   
     5     5     6 ar  
     6     5     8 ar  
     7     6     7 ar  
     8     6    19 1   
     9     7    10 ar  
    10     7    20 1   
    11     8     9 ar  
    12     8    21 1   
    13     9    10 ar  
    14     9    22 1   
    15    10    11 1   
    16    11    12 1   
    17    11    23 1   
    18    12    13 2   
    19    12    14 1   
    20    14    15 1   
    21    14    16 1   
    22    14    17 1   
    23    15    24 1   
    24    15    25 1   
    25    15    26 1   
    26    16    27 1   
    27    16    28 1   
    28    16    29 1   
    29    17    18 1   
    30    17    30 1   
    31    17    31 1   
@<TRIPOS>SUBSTRUCTURE
     1 G1L         1 TEMP              0 ****  ****    0 ROOT
