@<TRIPOS>MOLECULE
G1L
   31    31     1     0     0
SMALL
No Charge or Current Charge


@<TRIPOS>ATOM
      1 F23         10.0160    -1.1880    -2.1770 f          1 G1L      -0.115667
      2 C20          9.0580    -1.6630    -3.0060 c3         1 G1L       0.361300
      3 F21          9.1300    -3.0120    -2.9620 f          1 G1L      -0.115667
      4 F22          9.4110    -1.2880    -4.2570 f          1 G1L      -0.115667
      5 C3           7.6590    -1.1680    -2.6230 ca         1 G1L      -0.232300
      6 C2           7.3360    -0.9020    -1.2760 ca         1 G1L      -0.029000
      7 C1           6.0500    -0.4580    -0.9220 ca         1 G1L      -0.163000
      8 C4           6.6620    -1.0010    -3.6060 ca         1 G1L      -0.029000
      9 C5           5.3780    -0.5580    -3.2490 ca         1 G1L      -0.163000
     10 C6           5.0600    -0.2730    -1.9090 ca         1 G1L       0.017000
     11 N11          3.7380     0.1640    -1.6260 ns         1 G1L      -0.146000
     12 C12          3.1590     0.7170    -0.4880 c          1 G1L       0.618100
     13 O18          3.8040     0.9780     0.5220 o          1 G1L      -0.556100
     14 C13          1.6250     1.0280    -0.5560 c3         1 G1L      -0.132000
     15 C14          0.9080     0.1270     0.4890 c3         1 G1L      -0.085100
     16 C15          1.3850     2.5210    -0.1800 c3         1 G1L      -0.085100
     17 C16          0.9930     0.7300    -1.9550 c3         1 G1L       0.123600
     18 Cl17         1.6290     1.7900    -3.2970 cl         1 G1L      -0.262000
     19 H2           8.0800    -1.0430    -0.4930 ha         1 G1L       0.130000
     20 H1           5.8420    -0.2770     0.1270 ha         1 G1L       0.134500
     21 H4           6.8760    -1.2160    -4.6520 ha         1 G1L       0.130000
     22 H5           4.6250    -0.4330    -4.0250 ha         1 G1L       0.134500
     23 HN11         3.1030     0.0560    -2.4050 hn         1 G1L       0.150000
     24 H141         1.2850     0.3150     1.5020 hc         1 G1L       0.049367
     25 H142        -0.1740     0.3140     0.4960 hc         1 G1L       0.049367
     26 H143         1.0650    -0.9360     0.2640 hc         1 G1L       0.049367
     27 H151         1.6990     2.7240     0.8510 hc         1 G1L       0.049367
     28 H152         1.9510     3.1950    -0.8350 hc         1 G1L       0.049367
     29 H153         0.3220     2.7820    -0.2610 hc         1 G1L       0.049367
     30 H161         1.1580    -0.3160    -2.2470 h1         1 G1L       0.066700
     31 H162        -0.0910     0.9000    -1.9170 h1         1 G1L       0.066700
@<TRIPOS>BOND
     1     1     2 1   
     2     2     3 1   
     3     2     4 1   
     4     2     5 1   
     5     5     6 ar  
     6     5     8 ar  
     7     6     7 ar  
     8     6    19 1   
     9     7    10 ar  
    10     7    20 1   
    11     8     9 ar  
    12     8    21 1   
    13     9    10 ar  
    14     9    22 1   
    15    10    11 1   
    16    11    12 1   
    17    11    23 1   
    18    12    13 2   
    19    12    14 1   
    20    14    15 1   
    21    14    16 1   
    22    14    17 1   
    23    15    24 1   
    24    15    25 1   
    25    15    26 1   
    26    16    27 1   
    27    16    28 1   
    28    16    29 1   
    29    17    18 1   
    30    17    30 1   
    31    17    31 1   
@<TRIPOS>SUBSTRUCTURE
     1 G1L         1 TEMP              0 ****  ****    0 ROOT
