@<TRIPOS>MOLECULE
G1M
   48    50     1     0     0
SMALL
No Charge or Current Charge


@<TRIPOS>ATOM
      1 N1          -8.0850     1.6750     1.8640 ns         1 G1M      -0.457400
      2 C2          -7.7250     0.4110     2.1910 cc         1 G1M       0.582800
      3 N2          -8.6610    -0.3080     2.7920 nv         1 G1M      -1.060200
      4 N3          -6.5600    -0.1680     1.9870 nd         1 G1M      -0.671100
      5 C4          -5.6430     0.6750     1.3540 cd         1 G1M       0.090400
      6 C5          -5.9190     1.9650     0.9820 cc         1 G1M       0.060500
      7 C6          -7.2570     2.5590     1.2430 c          1 G1M       0.527500
      8 O6          -7.6170     3.6940     0.9580 o          1 G1M      -0.598000
      9 N7          -4.8220     2.5420     0.3830 nc         1 G1M      -0.635000
     10 C8          -3.8750     1.6000     0.3980 cd         1 G1M       0.431400
     11 N9          -4.3370     0.4260     0.9900 na         1 G1M      -0.195500
     12 PA           1.9960    -1.0140     1.1330 p5         1 G1M       1.471800
     13 PB           4.4270    -0.3810     0.2510 p5         1 G1M       1.512400
     14 PG           4.8160     1.7420    -1.6210 p5         1 G1M       1.289500
     15 C1          -3.5790    -0.8080     1.2010 c5         1 G1M       0.317300
     16 O1A          1.6760    -2.4480     0.8450 o          1 G1M      -0.877500
     17 O1B          4.9070    -1.7700     0.5500 o          1 G1M      -0.855000
     18 O1G          4.8370     1.9740    -3.0950 o          1 G1M      -0.889833
     19 C7          -3.6680    -1.8470     0.0490 c5         1 G1M      -0.171400
     20 O2A          2.5120    -0.8250     2.5220 o          1 G1M      -0.877500
     21 O2B          4.9250     0.6190     1.2460 o          1 G1M      -0.855000
     22 O2G          3.5520     2.2940    -1.0590 o          1 G1M      -0.889833
     23 C3          -2.4710    -1.4260    -0.8330 c5         1 G1M       0.116300
     24 O3          -2.1020    -2.4620    -1.7460 oh         1 G1M      -0.696000
     25 O3A          2.8670    -0.3430    -0.0010 os         1 G1M      -0.713800
     26 C3B          4.9760    -0.0350    -1.4340 c3         1 G1M      -0.647700
     27 C3B2         6.3840    -0.5700    -1.7910 c3         1 G1M      -0.021100
     28 O3G          6.0130     2.4140    -1.0370 o          1 G1M      -0.889833
     29 C9          -1.4150    -1.1710     0.2840 c5         1 G1M       0.154300
     30 O4          -2.1710    -0.4800     1.3190 os         1 G1M      -0.393000
     31 C10         -0.1970    -0.3110    -0.1740 c3         1 G1M       0.246600
     32 O5           0.6930    -0.0810     0.9310 os         1 G1M      -0.550400
     33 HN1         -9.0190     1.9960     2.0690 hn         1 G1M       0.282500
     34 HN2         -9.3900     0.1900     3.2910 hn         1 G1M       0.463000
     35 HN2A        -8.3460    -1.1780     3.2070 hn         1 G1M       0.463000
     36 H8          -2.8650     1.6950     0.0140 h5         1 G1M       0.083100
     37 H1          -3.9520    -1.2330     2.1410 h2         1 G1M       0.083700
     38 H2          -3.5570    -2.8690     0.4380 hc         1 G1M       0.048200
     39 H2'A        -4.6280    -1.8010    -0.4830 hc         1 G1M       0.048200
     40 H3          -2.6920    -0.4950    -1.3780 h1         1 G1M       0.041700
     41 HO3         -2.8770    -2.6130    -2.3370 ho         1 G1M       0.474000
     42 H3B          4.2390    -0.4920    -2.0980 hc         1 G1M       0.054700
     43 HC3B         6.4140    -1.6660    -1.7400 hc         1 G1M       0.006700
     44 HC3A         6.6620    -0.2780    -2.8120 hc         1 G1M       0.006700
     45 HC3C         7.1430    -0.1760    -1.1040 hc         1 G1M       0.006700
     46 H4          -1.0530    -2.1270     0.6930 h1         1 G1M       0.071700
     47 H5           0.3220    -0.8310    -0.9940 h1         1 G1M       0.006700
     48 H5'A        -0.5600     0.6490    -0.5690 h1         1 G1M       0.006700
@<TRIPOS>BOND
     1     1     2 1   
     2     1     7 1   
     3     1    33 1   
     4     2     3 1   
     5     2     4 2   
     6     3    34 1   
     7     3    35 1   
     8     4     5 1   
     9     5     6 2   
    10     5    11 1   
    11     6     7 1   
    12     6     9 1   
    13     7     8 2   
    14     9    10 2   
    15    10    11 1   
    16    10    36 1   
    17    11    15 1   
    18    12    16 1   
    19    12    20 1   
    20    12    25 1   
    21    12    32 1   
    22    13    17 1   
    23    13    21 1   
    24    13    25 1   
    25    13    26 1   
    26    14    18 1   
    27    14    22 1   
    28    14    26 1   
    29    14    28 1   
    30    15    19 1   
    31    15    30 1   
    32    15    37 1   
    33    19    23 1   
    34    19    38 1   
    35    19    39 1   
    36    23    24 1   
    37    23    29 1   
    38    23    40 1   
    39    24    41 1   
    40    26    27 1   
    41    26    42 1   
    42    27    43 1   
    43    27    44 1   
    44    27    45 1   
    45    29    30 1   
    46    29    31 1   
    47    29    46 1   
    48    31    32 1   
    49    31    47 1   
    50    31    48 1   
@<TRIPOS>SUBSTRUCTURE
     1 G1M         1 TEMP              0 ****  ****    0 ROOT
