@<TRIPOS>MOLECULE
G1M
   48    50     1     0     0
SMALL
bcc


@<TRIPOS>ATOM
      1 N1          -6.9580     2.4850     0.5910 ns         1 G1M      -0.524400
      2 C2          -6.7200     1.6530     1.6470 cc         1 G1M       0.582800
      3 N2          -7.5490     1.7490     2.6980 nv         1 G1M      -0.949800
      4 N3          -5.7600     0.7620     1.6510 nd         1 G1M      -0.671100
      5 C4          -5.0400     0.7580     0.5200 cd         1 G1M       0.075800
      6 C5          -5.1970     1.5520    -0.6010 cc         1 G1M       0.125800
      7 C6          -6.2410     2.5210    -0.6120 c          1 G1M       0.670000
      8 O6          -6.5460     3.3090    -1.4920 o          1 G1M      -0.673500
      9 N7          -4.2520     1.2450    -1.5450 nc         1 G1M      -0.635000
     10 C8          -3.5490     0.2930    -1.0100 cd         1 G1M       0.431400
     11 N9          -3.9800    -0.0470     0.2480 na         1 G1M      -0.216900
     12 PA           2.1170    -1.7760    -0.3880 p5         1 G1M       1.471800
     13 PB           4.3640    -0.1250     0.6400 p5         1 G1M       1.354600
     14 PG           5.5370     2.7170     0.7870 p5         1 G1M       1.131700
     15 C1          -3.4540    -1.0800     1.1320 c5         1 G1M       0.264800
     16 O1A          2.0750    -1.3780    -1.8350 o          1 G1M      -0.877500
     17 O1B          5.1200    -0.9130    -0.3980 o          1 G1M      -0.855000
     18 O1G          5.3940     4.0140    -0.0300 o          1 G1M      -0.889833
     19 C7          -3.9690    -2.4770     0.8010 c5         1 G1M      -0.171400
     20 O2A          2.6200    -3.1400    -0.0160 o          1 G1M      -0.877500
     21 O2B          4.7170    -0.2900     2.0940 o          1 G1M      -0.855000
     22 O2G          5.2680     2.9320     2.2810 o          1 G1M      -0.889833
     23 C3          -2.8620    -3.0440    -0.0830 c5         1 G1M       0.093100
     24 O3          -2.7290    -4.4380    -0.0590 oh         1 G1M      -0.573800
     25 O3A          2.7430    -0.6280     0.5580 os         1 G1M      -0.713800
     26 C3B          4.1530     1.6150     0.1610 c3         1 G1M      -0.332100
     27 C3B2         3.9770     1.7300    -1.3520 c3         1 G1M      -0.021100
     28 O3G          6.8330     1.9540     0.4830 o          1 G1M      -0.889833
     29 C9          -1.6260    -2.3970     0.5350 c5         1 G1M       0.131100
     30 O4          -2.0630    -1.1190     0.9890 os         1 G1M      -0.346600
     31 C10         -0.4690    -2.2380    -0.4210 c3         1 G1M       0.223400
     32 O5           0.5890    -1.5950     0.2420 os         1 G1M      -0.527200
     33 HN1         -7.7300     3.1370     0.6590 hn         1 G1M       0.282500
     34 HN2         -8.1230     2.5660     2.8270 hn         1 G1M       0.407800
     35 HN2A        -7.2920     1.2520     3.5340 hn         1 G1M       0.407800
     36 H8          -2.7000    -0.1840    -1.4740 h5         1 G1M       0.083100
     37 H1          -3.7340    -0.7750     2.1430 h2         1 G1M       0.083700
     38 H2          -4.0270    -3.0660     1.7200 hc         1 G1M       0.048200
     39 H2'A        -4.9540    -2.4640     0.3380 hc         1 G1M       0.048200
     40 H3          -2.9910    -2.6850    -1.1150 h1         1 G1M       0.041700
     41 HO3         -3.4470    -4.8220    -0.5700 ho         1 G1M       0.375000
     42 H3B          3.2310     1.9610     0.6450 hc         1 G1M       0.054700
     43 HC3B         3.1910     1.0770    -1.7360 hc         1 G1M       0.006700
     44 HC3A         3.7380     2.7560    -1.6280 hc         1 G1M       0.006700
     45 HC3C         4.9020     1.4610    -1.8630 hc         1 G1M       0.006700
     46 H4          -1.3060    -2.9990     1.3960 h1         1 G1M       0.071700
     47 H5          -0.1940    -3.2410    -0.7710 h1         1 G1M       0.006700
     48 H5'A        -0.7900    -1.6680    -1.3030 h1         1 G1M       0.006700
@<TRIPOS>BOND
     1     1     2 1   
     2     1     7 1   
     3     1    33 1   
     4     2     3 1   
     5     2     4 2   
     6     3    34 1   
     7     3    35 1   
     8     4     5 1   
     9     5     6 2   
    10     5    11 1   
    11     6     7 1   
    12     6     9 1   
    13     7     8 2   
    14     9    10 2   
    15    10    11 1   
    16    10    36 1   
    17    11    15 1   
    18    12    16 1   
    19    12    20 1   
    20    12    25 1   
    21    12    32 1   
    22    13    17 1   
    23    13    21 1   
    24    13    25 1   
    25    13    26 1   
    26    14    18 1   
    27    14    22 1   
    28    14    26 1   
    29    14    28 1   
    30    15    19 1   
    31    15    30 1   
    32    15    37 1   
    33    19    23 1   
    34    19    38 1   
    35    19    39 1   
    36    23    24 1   
    37    23    29 1   
    38    23    40 1   
    39    24    41 1   
    40    26    27 1   
    41    26    42 1   
    42    27    43 1   
    43    27    44 1   
    44    27    45 1   
    45    29    30 1   
    46    29    31 1   
    47    29    46 1   
    48    31    32 1   
    49    31    47 1   
    50    31    48 1   
@<TRIPOS>SUBSTRUCTURE
     1 G1M         1 TEMP              0 ****  ****    0 ROOT
