@<TRIPOS>MOLECULE
G1N
   24    25     1     0     0
SMALL
No Charge or Current Charge


@<TRIPOS>ATOM
      1 O24         -3.2710    -0.7010     2.2650 o          1 G1N      -0.684500
      2 C6          -2.4830    -0.8980     1.3470 c          1 G1N       0.634500
      3 O25         -2.0430    -2.0210     1.1140 o          1 G1N      -0.684500
      4 C4          -2.0390     0.2770     0.4880 cc         1 G1N       0.205500
      5 N3          -2.4650     1.5850     0.6870 nc         1 G1N      -0.582000
      6 C2          -1.9130     2.3930    -0.2080 cd         1 G1N       0.379300
      7 S1          -0.8350     1.6390    -1.3750 ss         1 G1N      -0.098400
      8 C5          -1.1520     0.1150    -0.5700 cd         1 G1N       0.098000
      9 N9          -0.6000    -1.0740    -1.0020 nu         1 G1N      -0.821100
     10 S10          1.0380    -1.3490    -1.2000 sy         1 G1N       1.130600
     11 O12          1.1790    -2.7090    -0.6830 o          1 G1N      -0.557000
     12 O11          1.3020    -1.0090    -2.6000 o          1 G1N      -0.557000
     13 C15          1.8550    -0.2110    -0.1180 ca         1 G1N      -0.352500
     14 C16          2.4670     0.9610    -0.5940 ca         1 G1N       0.028000
     15 C17          3.0790     1.8010     0.3450 ca         1 G1N      -0.198000
     16 C18          3.0570     1.4400     1.7010 ca         1 G1N       0.382900
     17 N19          2.4690     0.3100     2.1540 nb         1 G1N      -0.684000
     18 C20          1.8770    -0.5030     1.2470 ca         1 G1N       0.453900
     19 H2          -2.0890     3.4600    -0.2600 h5         1 G1N       0.029100
     20 H3          -0.8830    -1.8690    -0.4230 hn         1 G1N       0.569000
     21 H4           2.4660     1.2180    -1.6530 ha         1 G1N       0.138000
     22 H5           3.5650     2.7210     0.0340 ha         1 G1N       0.115000
     23 H6           3.5260     2.0760     2.4520 h4         1 G1N       0.008100
     24 H7           1.4060    -1.4030     1.6440 h4         1 G1N       0.047100
@<TRIPOS>BOND
     1     1     2 1   
     2     2     3 1   
     3     2     4 1   
     4     4     5 1   
     5     4     8 2   
     6     5     6 2   
     7     6     7 1   
     8     6    19 1   
     9     7     8 1   
    10     8     9 1   
    11     9    10 1   
    12     9    20 1   
    13    10    11 2   
    14    10    12 2   
    15    10    13 1   
    16    13    14 ar  
    17    13    18 ar  
    18    14    15 ar  
    19    14    21 1   
    20    15    16 ar  
    21    15    22 1   
    22    16    17 ar  
    23    16    23 1   
    24    17    18 ar  
    25    18    24 1   
@<TRIPOS>SUBSTRUCTURE
     1 G1N         1 TEMP              0 ****  ****    0 ROOT
