@<TRIPOS>MOLECULE
G1N
   24    25     1     0     0
SMALL
abcg2


@<TRIPOS>ATOM
      1 O24         -2.4540     0.1860     2.6310 o          1 G1N      -0.684500
      2 C6          -1.9260    -0.3240     1.6410 c          1 G1N       0.634500
      3 O25         -1.4280    -1.4820     1.5610 o          1 G1N      -0.684500
      4 C4          -1.8440     0.4990     0.3800 cc         1 G1N       0.205500
      5 N3          -2.4150     1.7350     0.2670 nc         1 G1N      -0.582000
      6 C2          -2.2150     2.2420    -0.9010 cd         1 G1N       0.379300
      7 S1          -1.3140     1.2550    -1.9950 ss         1 G1N      -0.098400
      8 C5          -1.2000     0.0720    -0.7500 cd         1 G1N       0.098000
      9 N9          -0.6100    -1.1780    -0.8970 nu         1 G1N      -0.821100
     10 S10          0.9910    -1.2350    -1.3330 sy         1 G1N       1.130600
     11 O12          1.3790    -2.6270    -1.2420 o          1 G1N      -0.557000
     12 O11          1.1200    -0.5060    -2.5820 o          1 G1N      -0.557000
     13 C15          1.8300    -0.3150    -0.0760 ca         1 G1N      -0.352500
     14 C16          2.1810     1.0090    -0.2890 ca         1 G1N       0.028000
     15 C17          2.7740     1.6920     0.7590 ca         1 G1N      -0.198000
     16 C18          2.9780     1.0220     1.9570 ca         1 G1N       0.382900
     17 N19          2.6380    -0.2470     2.1570 nb         1 G1N      -0.684000
     18 C20          2.0700    -0.9050     1.1590 ca         1 G1N       0.453900
     19 H2          -2.5520     3.2230    -1.2070 h5         1 G1N       0.029100
     20 H3          -0.8190    -1.6830     0.0020 hn         1 G1N       0.569000
     21 H4           2.0090     1.4940    -1.2400 ha         1 G1N       0.138000
     22 H5           3.0730     2.7250     0.6510 ha         1 G1N       0.115000
     23 H6           3.4400     1.5340     2.7920 h4         1 G1N       0.008100
     24 H7           1.8040    -1.9390     1.3460 h4         1 G1N       0.047100
@<TRIPOS>BOND
     1     1     2 1   
     2     2     3 1   
     3     2     4 1   
     4     4     5 1   
     5     4     8 2   
     6     5     6 2   
     7     6     7 1   
     8     6    19 1   
     9     7     8 1   
    10     8     9 1   
    11     9    10 1   
    12     9    20 1   
    13    10    11 2   
    14    10    12 2   
    15    10    13 1   
    16    13    14 ar  
    17    13    18 ar  
    18    14    15 ar  
    19    14    21 1   
    20    15    16 ar  
    21    15    22 1   
    22    16    17 ar  
    23    16    23 1   
    24    17    18 ar  
    25    18    24 1   
@<TRIPOS>SUBSTRUCTURE
     1 G1N         1 TEMP              0 ****  ****    0 ROOT
