@<TRIPOS>MOLECULE
G1O
   23    24     1     0     0
SMALL
abcg2


@<TRIPOS>ATOM
      1 CAA          0.3270    -2.1030     0.0370 ca         1 G1O      -0.090000
      2 CAB         -0.9660    -2.5670     0.0960 ca         1 G1O      -0.091000
      3 CAC         -2.0220    -1.6660     0.0770 ca         1 G1O      -0.160000
      4 CAD         -1.8220    -0.2900     0.0190 ca         1 G1O       0.276000
      5 CAE         -0.4900     0.2200    -0.0000 ca         1 G1O      -0.021800
      6 CAF          0.5640    -0.7280    -0.0120 ca         1 G1O      -0.134600
      7 CAG          1.9710    -0.3120    -0.0670 c          1 G1O       0.562600
      8 CAH         -0.1450     1.6330     0.0080 cc         1 G1O      -0.134400
      9 CAI          1.1640     1.9580    -0.0300 cd         1 G1O      -0.065400
     10 NAJ          2.1650     1.0310    -0.0820 ns         1 G1O      -0.376100
     11 OAK          2.9180    -1.0930    -0.0980 o          1 G1O      -0.562000
     12 NAL         -2.9400     0.5250     0.0450 nv         1 G1O      -1.067000
     13 CAM         -1.1230     2.7750     0.0890 c3         1 G1O      -0.033900
     14 HAA          1.1610    -2.7910     0.0310 ha         1 G1O       0.140000
     15 HAB         -1.1690    -3.6290     0.1390 ha         1 G1O       0.117000
     16 HAC         -3.0400    -2.0390     0.0990 ha         1 G1O       0.110000
     17 HAI          1.5000     2.9850    -0.0180 h4         1 G1O       0.194000
     18 HNAJ         3.1210     1.3590    -0.1140 hn         1 G1O       0.327500
     19 HNAL        -3.8030     0.0280    -0.1090 hn         1 G1O       0.443000
     20 HNAA        -2.9120     1.3530    -0.5250 hn         1 G1O       0.443000
     21 HAM         -1.8150     2.6740     0.9230 hc         1 G1O       0.041367
     22 HAMA        -0.5830     3.7110     0.2260 hc         1 G1O       0.041367
     23 HAMB        -1.7100     2.8930    -0.8260 hc         1 G1O       0.041367
@<TRIPOS>BOND
     1     1     2 ar  
     2     1     6 ar  
     3     1    14 1   
     4     2     3 ar  
     5     2    15 1   
     6     3     4 ar  
     7     3    16 1   
     8     4     5 ar  
     9     4    12 1   
    10     5     6 ar  
    11     5     8 1   
    12     6     7 1   
    13     7    10 1   
    14     7    11 2   
    15     8     9 2   
    16     8    13 1   
    17     9    10 1   
    18     9    17 1   
    19    10    18 1   
    20    12    19 1   
    21    12    20 1   
    22    13    21 1   
    23    13    22 1   
    24    13    23 1   
@<TRIPOS>SUBSTRUCTURE
     1 G1O         1 TEMP              0 ****  ****    0 ROOT
