@<TRIPOS>MOLECULE
G1O
   23    24     1     0     0
SMALL
No Charge or Current Charge


@<TRIPOS>ATOM
      1 CAA          0.3190    -2.1360     0.0150 ca         1 G1O      -0.090000
      2 CAB         -0.9940    -2.6080     0.0350 ca         1 G1O      -0.091000
      3 CAC         -2.0530    -1.6970     0.0400 ca         1 G1O      -0.160000
      4 CAD         -1.8180    -0.3130     0.0260 ca         1 G1O       0.276000
      5 CAE         -0.4760     0.2020     0.0080 ca         1 G1O      -0.021800
      6 CAF          0.5860    -0.7500     0.0010 ca         1 G1O      -0.134600
      7 CAG          2.0160    -0.2960    -0.0220 c          1 G1O       0.562600
      8 CAH         -0.1460     1.6670    -0.0050 cc         1 G1O      -0.134400
      9 CAI          1.1990     2.0050    -0.0290 cd         1 G1O      -0.065400
     10 NAJ          2.1980     1.0540    -0.0370 ns         1 G1O      -0.376100
     11 OAK          2.9710    -1.0600    -0.0290 o          1 G1O      -0.562000
     12 NAL         -2.9450     0.4730     0.0280 nv         1 G1O      -1.067000
     13 CAM         -1.1540     2.7970     0.0090 c3         1 G1O      -0.033900
     14 HAA          1.1370    -2.8550     0.0110 ha         1 G1O       0.140000
     15 HAB         -1.1910    -3.6790     0.0460 ha         1 G1O       0.117000
     16 HAC         -3.0720    -2.0760     0.0540 ha         1 G1O       0.110000
     17 HAI          1.5660     3.0280    -0.0410 h4         1 G1O       0.194000
     18 HNAJ         3.1710     1.3400    -0.0530 hn         1 G1O       0.327500
     19 HNAL        -3.8640     0.0490    -0.0870 hn         1 G1O       0.443000
     20 HNAA        -2.8620     1.4760    -0.1020 hn         1 G1O       0.443000
     21 HAM         -1.7880     2.7550     0.9030 hc         1 G1O       0.041367
     22 HAMA        -0.6590     3.7750     0.0220 hc         1 G1O       0.041367
     23 HAMB        -1.7880     2.7770    -0.8860 hc         1 G1O       0.041367
@<TRIPOS>BOND
     1     1     2 ar  
     2     1     6 ar  
     3     1    14 1   
     4     2     3 ar  
     5     2    15 1   
     6     3     4 ar  
     7     3    16 1   
     8     4     5 ar  
     9     4    12 1   
    10     5     6 ar  
    11     5     8 1   
    12     6     7 1   
    13     7    10 1   
    14     7    11 2   
    15     8     9 2   
    16     8    13 1   
    17     9    10 1   
    18     9    17 1   
    19    10    18 1   
    20    12    19 1   
    21    12    20 1   
    22    13    21 1   
    23    13    22 1   
    24    13    23 1   
@<TRIPOS>SUBSTRUCTURE
     1 G1O         1 TEMP              0 ****  ****    0 ROOT
