@<TRIPOS>MOLECULE
G1P
   27    27     1     0     0
SMALL
abcg2


@<TRIPOS>ATOM
      1 C1          28.7170     3.4540    53.2500 c6         1 G1P       0.477300
      2 C2          28.5710     2.4200    54.3700 c6         1 G1P       0.132300
      3 C3          27.7770     1.2210    53.8700 c6         1 G1P       0.129300
      4 C4          26.4310     1.6880    53.3330 c6         1 G1P       0.107300
      5 C5          26.6420     2.7920    52.2880 c6         1 G1P       0.162300
      6 C6          25.3480     3.3760    51.7620 c3         1 G1P       0.153600
      7 O1          29.4530     2.9340    52.2280 os         1 G1P      -0.576400
      8 O2          29.8550     2.0630    54.8190 oh         1 G1P      -0.663000
      9 O3          27.6300     0.3250    54.9500 oh         1 G1P      -0.696000
     10 O4          25.7770     0.5670    52.7750 oh         1 G1P      -0.743000
     11 O5          27.4130     3.8410    52.8390 os         1 G1P      -0.482000
     12 O6          24.5650     3.8650    52.8270 oh         1 G1P      -0.719000
     13 P           30.5760     3.8850    51.2940 p5         1 G1P       1.274900
     14 O1P         30.2310     3.4410    49.8810 o          1 G1P      -0.914167
     15 O2P         30.2280     5.3300    51.6320 o          1 G1P      -0.914167
     16 O3P         31.9300     3.4140    51.8050 o          1 G1P      -0.914167
     17 H1          29.1520     4.3760    53.6530 h2         1 G1P       0.087700
     18 H2          27.9950     2.8930    55.1820 h1         1 G1P      -0.002300
     19 H3          28.3370     0.7470    53.0490 h1         1 G1P       0.091700
     20 H4          25.8550     2.0950    54.1750 h1         1 G1P       0.035700
     21 H5          27.1530     2.3500    51.4210 h1         1 G1P       0.092700
     22 H61         25.5920     4.1670    51.0400 h1         1 G1P       0.019200
     23 H62         24.8260     2.5930    51.1980 h1         1 G1P       0.019200
     24 HO2         29.7480     1.4260    55.5320 ho         1 G1P       0.465000
     25 HO3         27.2450    -0.4910    54.6140 ho         1 G1P       0.429000
     26 HO4         24.8280     0.7170    52.7990 ho         1 G1P       0.480000
     27 HO6         23.7150     4.1410    52.4730 ho         1 G1P       0.466000
@<TRIPOS>BOND
     1     1     2 1   
     2     1     7 1   
     3     1    11 1   
     4     1    17 1   
     5     2     3 1   
     6     2     8 1   
     7     2    18 1   
     8     3     4 1   
     9     3     9 1   
    10     3    19 1   
    11     4     5 1   
    12     4    10 1   
    13     4    20 1   
    14     5     6 1   
    15     5    11 1   
    16     5    21 1   
    17     6    12 1   
    18     6    22 1   
    19     6    23 1   
    20     7    13 1   
    21     8    24 1   
    22     9    25 1   
    23    10    26 1   
    24    12    27 1   
    25    13    14 1   
    26    13    15 1   
    27    13    16 1   
@<TRIPOS>SUBSTRUCTURE
     1 G1P         1 TEMP              0 ****  ****    0 ROOT
