@<TRIPOS>MOLECULE
G1P
   27    27     1     0     0
SMALL
No Charge or Current Charge


@<TRIPOS>ATOM
      1 C1          28.7050     3.5090    53.1000 c6         1 G1P       0.477300
      2 C2          28.7000     2.4250    54.2510 c6         1 G1P       0.132300
      3 C3          27.8630     1.1950    53.7980 c6         1 G1P       0.129300
      4 C4          26.4270     1.6370    53.3920 c6         1 G1P       0.107300
      5 C5          26.5270     2.7340    52.2800 c6         1 G1P       0.162300
      6 C6          25.1310     3.3010    51.8470 c3         1 G1P       0.153600
      7 O1          29.3870     3.0770    51.9160 os         1 G1P      -0.576400
      8 O2          30.0040     1.9730    54.6710 oh         1 G1P      -0.663000
      9 O3          27.7980     0.2050    54.8450 oh         1 G1P      -0.696000
     10 O4          25.6620     0.4870    52.9650 oh         1 G1P      -0.743000
     11 O5          27.3400     3.8470    52.7460 os         1 G1P      -0.482000
     12 O6          24.4150     3.9690    52.9050 oh         1 G1P      -0.719000
     13 P           30.6840     3.9170    51.4890 p5         1 G1P       1.274900
     14 O1P         31.2680     3.2990    50.2670 o          1 G1P      -0.914167
     15 O2P         30.2880     5.3190    51.1860 o          1 G1P      -0.914167
     16 O3P         31.6990     3.9070    52.5750 o          1 G1P      -0.914167
     17 H1          29.1890     4.4140    53.5040 h2         1 G1P       0.087700
     18 H2          28.1930     2.8740    55.1180 h1         1 G1P      -0.002300
     19 H3          28.3440     0.7650    52.9050 h1         1 G1P       0.091700
     20 H4          25.9490     2.0880    54.2750 h1         1 G1P       0.035700
     21 H5          26.9970     2.2970    51.3860 h1         1 G1P       0.092700
     22 H61         25.3000     4.0010    51.0170 h1         1 G1P       0.019200
     23 H62         24.5270     2.4770    51.4460 h1         1 G1P       0.019200
     24 HO2         29.8330     1.0940    55.0810 ho         1 G1P       0.465000
     25 HO3         27.0090    -0.3390    54.6170 ho         1 G1P       0.429000
     26 HO4         24.7130     0.7530    52.9830 ho         1 G1P       0.480000
     27 HO6         23.6350     4.4050    52.4920 ho         1 G1P       0.466000
@<TRIPOS>BOND
     1     1     2 1   
     2     1     7 1   
     3     1    11 1   
     4     1    17 1   
     5     2     3 1   
     6     2     8 1   
     7     2    18 1   
     8     3     4 1   
     9     3     9 1   
    10     3    19 1   
    11     4     5 1   
    12     4    10 1   
    13     4    20 1   
    14     5     6 1   
    15     5    11 1   
    16     5    21 1   
    17     6    12 1   
    18     6    22 1   
    19     6    23 1   
    20     7    13 1   
    21     8    24 1   
    22     9    25 1   
    23    10    26 1   
    24    12    27 1   
    25    13    14 1   
    26    13    15 1   
    27    13    16 1   
@<TRIPOS>SUBSTRUCTURE
     1 G1P         1 TEMP              0 ****  ****    0 ROOT
