@<TRIPOS>MOLECULE
G1R
   58    61     1     0     0
SMALL
No Charge or Current Charge


@<TRIPOS>ATOM
      1 O6          19.7380     5.4230   -28.0720 o          1 G1R      -0.545000
      2 C6          20.2350     6.1020   -27.1830 c          1 G1R       0.523500
      3 N1          20.3330     7.4550   -27.2800 ns         1 G1R      -0.461400
      4 C2          20.8700     8.2380   -26.3180 cc         1 G1R       0.711800
      5 N2          20.8900     9.5320   -26.5770 nv         1 G1R      -1.060200
      6 N3          21.3740     7.8580   -25.1660 nd         1 G1R      -0.679100
      7 C4          21.3150     6.4750   -24.9850 cd         1 G1R       0.136400
      8 C5          20.7910     5.6020   -25.9010 cc         1 G1R       0.094500
      9 N7          20.8740     4.3080   -25.4400 nc         1 G1R      -0.626000
     10 C8          21.4530     4.3990   -24.2380 cd         1 G1R       0.448400
     11 N9          21.7400     5.7240   -23.9160 na         1 G1R      -0.166500
     12 C1          22.3620     6.2200   -22.6900 c5         1 G1R       0.303300
     13 O4          23.0300     5.1220   -22.0150 os         1 G1R      -0.417000
     14 C7          21.3830     6.8620   -21.6360 c5         1 G1R       0.099300
     15 O2          22.0110     7.9220   -20.8800 oh         1 G1R      -0.724000
     16 C3          21.0700     5.6180   -20.7420 c5         1 G1R       0.132300
     17 O3          20.1320     4.7180   -21.3460 oh         1 G1R      -0.753000
     18 C9          22.5100     5.0070   -20.6700 c5         1 G1R       0.117300
     19 C10         22.6400     3.5460   -20.1430 c3         1 G1R       0.223600
     20 O5          21.6130     2.7140   -20.7350 os         1 G1R      -0.621400
     21 PA          21.4880     1.1660   -20.2960 p5         1 G1R       1.470800
     22 O1A         20.0400     0.8370   -20.1700 o          1 G1R      -0.835000
     23 O2A         22.1940     0.8680   -19.0180 o          1 G1R      -0.835000
     24 O3A         22.0730     0.4010   -21.5430 os         1 G1R      -0.698800
     25 PB          23.5280     0.7470   -22.0210 p5         1 G1R       1.486800
     26 O2B         23.5860     1.9390   -22.9120 o          1 G1R      -0.842500
     27 O1B         24.5370     0.7700   -20.9270 o          1 G1R      -0.842500
     28 O5X         23.7320    -0.5670   -22.9250 os         1 G1R      -0.583400
     29 C5X         25.0460    -1.0490   -23.2570 c3         1 G1R       0.230600
     30 C4X         25.8760     0.0050   -24.0570 c5         1 G1R       0.079300
     31 O4X         27.0570    -0.6400   -24.5960 os         1 G1R      -0.485000
     32 C1X         27.5530     0.1740   -25.6610 c5         1 G1R       0.367300
     33 O1X         28.1960     1.3190   -25.1300 oh         1 G1R      -0.745000
     34 C2X         26.2550     0.5860   -26.4290 c5         1 G1R       0.075300
     35 O2X         26.3330     1.8910   -27.0190 oh         1 G1R      -0.761000
     36 C3X         25.1570     0.6360   -25.3120 c5         1 G1R       0.149300
     37 O3X         24.7570     2.0150   -25.1130 oh         1 G1R      -0.806000
     38 HN1         19.9580     7.8810   -28.1120 hn         1 G1R       0.305500
     39 HN21        21.4670    10.0600   -25.9330 hn         1 G1R       0.492000
     40 HN22        20.9630     9.8070   -27.5480 hn         1 G1R       0.492000
     41 H8          21.6810     3.5790   -23.5670 h5         1 G1R       0.096100
     42 H1          23.0990     6.9630   -23.0190 h2         1 G1R       0.087700
     43 H2          20.4740     7.2390   -22.1270 h1         1 G1R       0.060700
     44 HO2         21.2990     8.3880   -20.3810 ho         1 G1R       0.503000
     45 H3          20.7170     5.9140   -19.7440 h1         1 G1R       0.052700
     46 HO3         20.5420     3.8140   -21.1900 ho         1 G1R       0.583000
     47 H4          23.1430     5.6350   -20.0270 h1         1 G1R       0.034700
     48 H5'1        22.5310     3.5660   -19.0500 h1         1 G1R       0.064200
     49 H5'2        23.6480     3.1780   -20.3700 h1         1 G1R       0.064200
     50 H5X1        24.9530    -1.9550   -23.8710 h1         1 G1R       0.031200
     51 H5X2        25.5970    -1.3250   -22.3490 h1         1 G1R       0.031200
     52 H4X         26.2060     0.7920   -23.3650 h1         1 G1R       0.067700
     53 H1X         28.2410    -0.3920   -26.3050 h2         1 G1R       0.065700
     54 HO1X        27.8500     2.0210   -25.7320 ho         1 G1R       0.530000
     55 H2X         26.0040    -0.1700   -27.1860 h1         1 G1R       0.044700
     56 HO2X        25.6410     2.3460   -26.4430 ho         1 G1R       0.558000
     57 H3X         24.2900     0.0270   -25.6070 h1         1 G1R       0.051700
     58 HO3X        24.2490     2.0370   -24.2190 ho         1 G1R       0.621000
@<TRIPOS>BOND
     1     1     2 2   
     2     2     3 1   
     3     2     8 1   
     4     3     4 1   
     5     3    38 1   
     6     4     5 1   
     7     4     6 2   
     8     5    39 1   
     9     5    40 1   
    10     6     7 1   
    11     7     8 2   
    12     7    11 1   
    13     8     9 1   
    14     9    10 2   
    15    10    11 1   
    16    10    41 1   
    17    11    12 1   
    18    12    13 1   
    19    12    14 1   
    20    12    42 1   
    21    13    18 1   
    22    14    15 1   
    23    14    16 1   
    24    14    43 1   
    25    15    44 1   
    26    16    17 1   
    27    16    18 1   
    28    16    45 1   
    29    17    46 1   
    30    18    19 1   
    31    18    47 1   
    32    19    20 1   
    33    19    48 1   
    34    19    49 1   
    35    20    21 1   
    36    21    22 1   
    37    21    23 1   
    38    21    24 1   
    39    24    25 1   
    40    25    26 1   
    41    25    27 1   
    42    25    28 1   
    43    28    29 1   
    44    29    30 1   
    45    29    50 1   
    46    29    51 1   
    47    30    31 1   
    48    30    36 1   
    49    30    52 1   
    50    31    32 1   
    51    32    33 1   
    52    32    34 1   
    53    32    53 1   
    54    33    54 1   
    55    34    35 1   
    56    34    36 1   
    57    34    55 1   
    58    35    56 1   
    59    36    37 1   
    60    36    57 1   
    61    37    58 1   
@<TRIPOS>SUBSTRUCTURE
     1 G1R         1 TEMP              0 ****  ****    0 ROOT
