@<TRIPOS>MOLECULE
G1R
   58    61     1     0     0
SMALL
bcc


@<TRIPOS>ATOM
      1 O6          18.4110     7.5480   -27.9030 o          1 G1R      -0.620500
      2 C6          19.1150     7.8020   -26.9420 c          1 G1R       0.666000
      3 N1          19.9970     8.8930   -26.9730 ns         1 G1R      -0.528400
      4 C2          20.8430     9.2730   -25.9710 cc         1 G1R       0.711800
      5 N2          21.5900    10.3680   -26.1790 nv         1 G1R      -0.949800
      6 N3          20.9240     8.6380   -24.8290 nd         1 G1R      -0.679100
      7 C4          20.0930     7.5910   -24.7450 cd         1 G1R       0.121800
      8 C5          19.2050     7.1230   -25.6920 cc         1 G1R       0.159800
      9 N7          18.5410     6.0150   -25.2290 nc         1 G1R      -0.626000
     10 C8          19.0130     5.8210   -24.0370 cd         1 G1R       0.448400
     11 N9          19.9580     6.7540   -23.6770 na         1 G1R      -0.187900
     12 C1          20.7410     6.8100   -22.4720 c5         1 G1R       0.250800
     13 O4          21.7220     5.8050   -22.5090 os         1 G1R      -0.370600
     14 C7          19.9410     6.6190   -21.1590 c5         1 G1R       0.076100
     15 O2          20.3240     7.6650   -20.3040 oh         1 G1R      -0.601800
     16 C3          20.4280     5.2520   -20.6690 c5         1 G1R       0.109100
     17 O3          19.6110     4.2690   -21.2570 oh         1 G1R      -0.630800
     18 C9          21.8610     5.2760   -21.1950 c5         1 G1R       0.094100
     19 C10         22.6600     3.9940   -21.2020 c3         1 G1R       0.200400
     20 O5          21.9590     2.9410   -21.8400 os         1 G1R      -0.598200
     21 PA          21.8790     1.4090   -21.2110 p5         1 G1R       1.470800
     22 O1A         20.5960     0.8480   -21.7230 o          1 G1R      -0.835000
     23 O2A         22.2240     1.4310   -19.7600 o          1 G1R      -0.835000
     24 O3A         23.0620     0.6540   -22.0730 os         1 G1R      -0.698800
     25 PB          24.6200     1.0430   -22.3330 p5         1 G1R       1.486800
     26 O2B         24.7320     1.6320   -23.7240 o          1 G1R      -0.842500
     27 O1B         25.2410     1.7700   -21.1880 o          1 G1R      -0.842500
     28 O5X         25.1250    -0.5130   -22.3930 os         1 G1R      -0.560200
     29 C5X         26.4970    -0.8220   -22.5250 c3         1 G1R       0.207400
     30 C4X         27.0670    -0.4870   -23.9010 c5         1 G1R       0.056100
     31 O4X         28.2810    -1.2010   -24.0160 os         1 G1R      -0.438600
     32 C1X         28.6160    -1.3970   -25.3730 c5         1 G1R       0.320900
     33 O1X         29.5900    -0.5170   -25.8020 oh         1 G1R      -0.622800
     34 C2X         27.2960    -1.2310   -26.1700 c5         1 G1R       0.052100
     35 O2X         27.3860    -0.1180   -27.0180 oh         1 G1R      -0.638800
     36 C3X         26.2250    -0.9820   -25.0840 c5         1 G1R       0.126100
     37 O3X         25.2760    -0.0830   -25.5760 oh         1 G1R      -0.683800
     38 HN1         19.9860     9.4340   -27.8290 hn         1 G1R       0.305500
     39 HN21        22.3150    10.5670   -25.5110 hn         1 G1R       0.436800
     40 HN22        21.7100    10.7520   -27.1010 hn         1 G1R       0.436800
     41 H8          18.7200     5.0310   -23.3630 h5         1 G1R       0.096100
     42 H1          21.2010     7.8030   -22.4590 h2         1 G1R       0.087700
     43 H2          18.8590     6.6150   -21.3340 h1         1 G1R       0.060700
     44 HO2         19.8450     7.5720   -19.4740 ho         1 G1R       0.404000
     45 H3          20.4090     5.1790   -19.5740 h1         1 G1R       0.052700
     46 HO3         20.1680     3.5550   -21.5940 ho         1 G1R       0.484000
     47 H4          22.4290     5.9760   -20.5660 h1         1 G1R       0.034700
     48 H5'1        22.8900     3.7450   -20.1640 h1         1 G1R       0.064200
     49 H5'2        23.6120     4.1680   -21.7120 h1         1 G1R       0.064200
     50 H5X1        26.5830    -1.9010   -22.3800 h1         1 G1R       0.031200
     51 H5X2        27.0900    -0.3350   -21.7430 h1         1 G1R       0.031200
     52 H4X         27.2390     0.5950   -23.9950 h1         1 G1R       0.067700
     53 H1X         29.0190    -2.4100   -25.4450 h2         1 G1R       0.065700
     54 HO1X        29.1370     0.1960   -26.2790 ho         1 G1R       0.431000
     55 H2X         27.0810    -2.1350   -26.7490 h1         1 G1R       0.044700
     56 HO2X        26.5760     0.3940   -26.8450 ho         1 G1R       0.459000
     57 H3X         25.7640    -1.9420   -24.8120 h1         1 G1R       0.051700
     58 HO3X        25.0420     0.5950   -24.8800 ho         1 G1R       0.522000
@<TRIPOS>BOND
     1     1     2 2   
     2     2     3 1   
     3     2     8 1   
     4     3     4 1   
     5     3    38 1   
     6     4     5 1   
     7     4     6 2   
     8     5    39 1   
     9     5    40 1   
    10     6     7 1   
    11     7     8 2   
    12     7    11 1   
    13     8     9 1   
    14     9    10 2   
    15    10    11 1   
    16    10    41 1   
    17    11    12 1   
    18    12    13 1   
    19    12    14 1   
    20    12    42 1   
    21    13    18 1   
    22    14    15 1   
    23    14    16 1   
    24    14    43 1   
    25    15    44 1   
    26    16    17 1   
    27    16    18 1   
    28    16    45 1   
    29    17    46 1   
    30    18    19 1   
    31    18    47 1   
    32    19    20 1   
    33    19    48 1   
    34    19    49 1   
    35    20    21 1   
    36    21    22 1   
    37    21    23 1   
    38    21    24 1   
    39    24    25 1   
    40    25    26 1   
    41    25    27 1   
    42    25    28 1   
    43    28    29 1   
    44    29    30 1   
    45    29    50 1   
    46    29    51 1   
    47    30    31 1   
    48    30    36 1   
    49    30    52 1   
    50    31    32 1   
    51    32    33 1   
    52    32    34 1   
    53    32    53 1   
    54    33    54 1   
    55    34    35 1   
    56    34    36 1   
    57    34    55 1   
    58    35    56 1   
    59    36    37 1   
    60    36    57 1   
    61    37    58 1   
@<TRIPOS>SUBSTRUCTURE
     1 G1R         1 TEMP              0 ****  ****    0 ROOT
