@<TRIPOS>MOLECULE
G1S
   73    76     1     0     0
SMALL
abcg2


@<TRIPOS>ATOM
      1 C4         -22.6530     3.6400     8.4430 ca         1 G1S      -0.180000
      2 C5         -22.0080     4.8670     8.4470 ca         1 G1S       0.133100
      3 C6         -21.4600     5.4150     9.5860 ca         1 G1S      -0.096000
      4 C7         -21.5820     4.7090    10.7800 ca         1 G1S      -0.104600
      5 C8         -22.2180     3.4770    10.8070 ca         1 G1S      -0.126000
      6 C10        -22.7730     6.4450     6.8970 ca         1 G1S       0.550300
      7 C13        -24.4860     8.2950     6.0650 ca         1 G1S       0.201500
      8 C15        -22.5530     7.1510     5.7050 ca         1 G1S       0.275900
      9 C20        -23.8000     1.0040     8.6270 c3         1 G1S       0.180300
     10 C21        -24.7860    -0.0250     9.1430 c3         1 G1S      -0.108600
     11 C24        -20.2770     6.4090    16.1770 cc         1 G1S      -0.158000
     12 C26        -22.6230     0.3580     7.9170 c3         1 G1S      -0.108600
     13 C1         -21.2030     5.4920    14.4220 cd         1 G1S       0.378900
     14 C2         -20.9650     5.3200    11.9980 c          1 G1S       0.624700
     15 C3         -22.7570     2.9320     9.6380 ca         1 G1S       0.162100
     16 O9         -21.8600     5.5320     7.2470 os         1 G1S      -0.360400
     17 N11        -23.8240     6.6590     7.6480 nb         1 G1S      -0.716000
     18 C12        -24.6860     7.5830     7.2380 ca         1 G1S       0.390900
     19 N14        -23.4100     8.0610     5.3120 nb         1 G1S      -0.609000
     20 C16        -25.4820     9.3290     5.6600 c          1 G1S       0.533600
     21 O17        -26.4810     9.5250     6.3480 o          1 G1S      -0.617100
     22 N18        -21.5770     5.0260    13.1690 ns         1 G1S      -0.464400
     23 O19        -23.3590     1.7440     9.7730 os         1 G1S      -0.353100
     24 N22        -21.9710     5.1710    15.4450 nc         1 G1S      -0.568800
     25 N23        -21.3900     5.7330    16.5050 na         1 G1S       0.155800
     26 C25        -20.1030     6.2780    14.8200 cd         1 G1S      -0.216000
     27 O27        -19.9920     6.0480    11.9150 o          1 G1S      -0.577100
     28 N28        -25.2530    10.0290     4.5510 nj         1 G1S      -0.408800
     29 C29        -24.2480    10.1050     3.4910 cy         1 G1S       0.113500
     30 C30        -25.0750    11.2380     2.8510 cy         1 G1S      -0.122400
     31 C31        -26.0850    11.0910     4.0060 cy         1 G1S       0.113500
     32 C32        -22.0140     5.6570    17.7960 c3         1 G1S      -0.253400
     33 P33        -23.3970     6.8270    18.0220 p5         1 G1S       1.335800
     34 O34        -22.8890     8.2240    17.4170 os         1 G1S      -0.596900
     35 O35        -23.8850     6.8930    19.4190 o          1 G1S      -0.566000
     36 O36        -24.4290     6.3100    16.9240 os         1 G1S      -0.596900
     37 C37        -22.5280     9.3360    18.2550 c3         1 G1S       0.220100
     38 C38        -21.1900     9.1460    18.9310 c3         1 G1S      -0.127600
     39 C39        -25.6120     7.0610    16.5900 c3         1 G1S       0.220100
     40 C40        -25.5140     7.5850    15.1780 c3         1 G1S      -0.127600
     41 H41        -23.0510     3.2640     7.5100 ha         1 G1S       0.133000
     42 H42        -20.9520     6.3690     9.5500 ha         1 G1S       0.150000
     43 H43        -22.2830     2.8940    11.7180 ha         1 G1S       0.135000
     44 H45        -21.6800     6.9620     5.0920 h4         1 G1S       0.047100
     45 H47        -24.3280     1.6750     7.9420 h1         1 G1S       0.044700
     46 H49        -25.6300     0.4490     9.6440 hc         1 G1S       0.049033
     47 H50        -25.1750    -0.6080     8.3080 hc         1 G1S       0.049033
     48 H48        -24.3080    -0.7140     9.8400 hc         1 G1S       0.049033
     49 H54        -21.8960     1.0890     7.5610 hc         1 G1S       0.049033
     50 H55        -22.1110    -0.3410     8.5800 hc         1 G1S       0.049033
     51 H53        -22.9780    -0.1980     7.0490 hc         1 G1S       0.049033
     52 H44        -25.5520     7.7560     7.8620 h4         1 G1S       0.057100
     53 H46        -22.4370     4.4970    13.1520 hn         1 G1S       0.338500
     54 H52        -19.3060     6.6830    14.2260 ha         1 G1S       0.170000
     55 H57        -24.1650     9.1950     2.8970 h1         1 G1S       0.059950
     56 H56        -23.2570    10.3880     3.8410 h1         1 G1S       0.059950
     57 H59        -25.4760    11.0050     1.8680 hc         1 G1S       0.061200
     58 H58        -24.5690    12.2000     2.8110 hc         1 G1S       0.061200
     59 H60        -26.1730    11.9560     4.6660 h1         1 G1S       0.059950
     60 H61        -27.0860    10.7630     3.7210 h1         1 G1S       0.059950
     61 H62        -22.3720     4.6430    17.9780 h1         1 G1S       0.097200
     62 H63        -21.2690     5.8780    18.5610 h1         1 G1S       0.097200
     63 H64        -22.5020    10.1960    17.5870 h1         1 G1S       0.049700
     64 H65        -23.3130     9.5130    18.9920 h1         1 G1S       0.049700
     65 H68        -20.9430    10.0460    19.4960 hc         1 G1S       0.049867
     66 H66        -21.2010     8.3110    19.6320 hc         1 G1S       0.049867
     67 H67        -20.3940     8.9820    18.2030 hc         1 G1S       0.049867
     68 H70        -25.7710     7.8790    17.2980 h1         1 G1S       0.049700
     69 H69        -26.4530     6.3760    16.6950 h1         1 G1S       0.049700
     70 H72        -26.4390     8.0970    14.9150 hc         1 G1S       0.049867
     71 H73        -24.6940     8.2960    15.0720 hc         1 G1S       0.049867
     72 H71        -25.3650     6.7750    14.4640 hc         1 G1S       0.049867
     73 H51        -19.6860     6.9250    16.9170 h4         1 G1S       0.150000
@<TRIPOS>BOND
     1     1     2 ar  
     2     1    15 ar  
     3     1    41 1   
     4     2     3 ar  
     5     2    16 1   
     6     3     4 ar  
     7     3    42 1   
     8     4     5 ar  
     9     4    14 1   
    10     5    15 ar  
    11     5    43 1   
    12     6     8 ar  
    13     6    16 1   
    14     6    17 ar  
    15     7    18 ar  
    16     7    19 ar  
    17     7    20 1   
    18     8    19 ar  
    19     8    44 1   
    20     9    10 1   
    21     9    12 1   
    22     9    23 1   
    23     9    45 1   
    24    10    46 1   
    25    10    47 1   
    26    10    48 1   
    27    11    25 1   
    28    11    26 2   
    29    11    73 1   
    30    12    49 1   
    31    12    50 1   
    32    12    51 1   
    33    13    22 1   
    34    13    24 2   
    35    13    26 1   
    36    14    22 1   
    37    14    27 2   
    38    15    23 1   
    39    17    18 ar  
    40    18    52 1   
    41    20    21 2   
    42    20    28 1   
    43    22    53 1   
    44    24    25 1   
    45    25    32 1   
    46    26    54 1   
    47    28    29 1   
    48    28    31 1   
    49    29    30 1   
    50    29    55 1   
    51    29    56 1   
    52    30    31 1   
    53    30    57 1   
    54    30    58 1   
    55    31    59 1   
    56    31    60 1   
    57    32    33 1   
    58    32    61 1   
    59    32    62 1   
    60    33    34 1   
    61    33    35 2   
    62    33    36 1   
    63    34    37 1   
    64    36    39 1   
    65    37    38 1   
    66    37    63 1   
    67    37    64 1   
    68    38    65 1   
    69    38    66 1   
    70    38    67 1   
    71    39    40 1   
    72    39    68 1   
    73    39    69 1   
    74    40    70 1   
    75    40    71 1   
    76    40    72 1   
@<TRIPOS>SUBSTRUCTURE
     1 G1S         1 TEMP              0 ****  ****    0 ROOT
