@<TRIPOS>MOLECULE
G1S
   73    76     1     0     0
SMALL
No Charge or Current Charge


@<TRIPOS>ATOM
      1 C4         -23.0730     3.0120     8.0810 ca         1 G1S      -0.180000
      2 C5         -22.6910     4.3360     7.8340 ca         1 G1S       0.133100
      3 C6         -22.3330     5.1830     8.8990 ca         1 G1S      -0.096000
      4 C7         -22.3820     4.7260    10.2360 ca         1 G1S      -0.104600
      5 C8         -22.7870     3.3860    10.4690 ca         1 G1S      -0.126000
      6 C10        -23.1670     5.9640     6.0980 ca         1 G1S       0.550300
      7 C13        -24.1790     8.3040     5.0970 ca         1 G1S       0.201500
      8 C15        -22.6610     6.5560     4.9050 ca         1 G1S       0.275900
      9 C20        -23.6690     0.1960     8.7450 c3         1 G1S       0.180300
     10 C21        -24.4270    -0.9460     9.4480 c3         1 G1S      -0.108600
     11 C24        -21.2010     7.2520    15.3880 cc         1 G1S      -0.158000
     12 C26        -22.2720    -0.2480     8.2570 c3         1 G1S      -0.108600
     13 C1         -21.8070     5.7550    13.8440 cd         1 G1S       0.378900
     14 C2         -21.9990     5.6750    11.3600 c          1 G1S       0.624700
     15 C3         -23.1210     2.5320     9.4050 ca         1 G1S       0.162100
     16 O9         -22.6260     4.7700     6.5290 os         1 G1S      -0.360400
     17 N11        -24.1920     6.5290     6.7930 nb         1 G1S      -0.716000
     18 C12        -24.6830     7.6970     6.2840 ca         1 G1S       0.390900
     19 N14        -23.1480     7.7230     4.3920 nb         1 G1S      -0.609000
     20 C16        -24.8120     9.6170     4.6250 c          1 G1S       0.533600
     21 O17        -25.7300    10.0840     5.3030 o          1 G1S      -0.617100
     22 N18        -22.0800     5.1650    12.6380 ns         1 G1S      -0.464400
     23 O19        -23.5040     1.2420     9.7220 os         1 G1S      -0.353100
     24 N22        -21.9480     5.0960    14.9700 nc         1 G1S      -0.568800
     25 N23        -21.5900     6.0270    15.9200 na         1 G1S       0.155800
     26 C25        -21.3520     7.0760    14.0430 cd         1 G1S      -0.216000
     27 O27        -21.6420     6.8210    11.1290 o          1 G1S      -0.577100
     28 N28        -24.1950    10.0990     3.4150 nj         1 G1S      -0.408800
     29 C29        -23.9370    11.5350     3.7730 cy         1 G1S       0.113500
     30 C30        -24.6650    11.8820     2.4350 cy         1 G1S      -0.122400
     31 C31        -25.3900    10.5090     2.6020 cy         1 G1S       0.113500
     32 C32        -21.5920     5.6470    17.3310 c3         1 G1S      -0.253400
     33 P33        -22.7430     6.6080    18.3690 p5         1 G1S       1.335800
     34 O34        -22.0370     8.0650    18.3870 os         1 G1S      -0.596900
     35 O35        -23.0260     5.9820    19.6920 o          1 G1S      -0.566000
     36 O36        -24.0230     6.8320    17.4040 os         1 G1S      -0.596900
     37 C37        -22.2580     9.0110    19.4440 c3         1 G1S       0.220100
     38 C38        -21.3540     8.6500    20.6380 c3         1 G1S      -0.127600
     39 C39        -25.2100     7.4920    17.8610 c3         1 G1S       0.220100
     40 C40        -25.2080     8.9240    17.2970 c3         1 G1S      -0.127600
     41 H41        -23.3330     2.3820     7.2380 ha         1 G1S       0.133000
     42 H42        -22.0180     6.2010     8.6820 ha         1 G1S       0.150000
     43 H43        -22.8440     2.9780    11.4740 ha         1 G1S       0.135000
     44 H45        -21.8490     6.0830     4.3560 h4         1 G1S       0.047100
     45 H47        -24.2780     0.5350     7.8970 h1         1 G1S       0.044700
     46 H49        -25.4080    -0.5990     9.7940 hc         1 G1S       0.049033
     47 H50        -24.5860    -1.7830     8.7590 hc         1 G1S       0.049033
     48 H48        -23.8640    -1.3140    10.3140 hc         1 G1S       0.049033
     49 H54        -21.7550     0.5650     7.7350 hc         1 G1S       0.049033
     50 H55        -21.6490    -0.5670     9.1010 hc         1 G1S       0.049033
     51 H53        -22.3620    -1.0890     7.5600 hc         1 G1S       0.049033
     52 H44        -25.5000     8.1480     6.8460 h4         1 G1S       0.057100
     53 H46        -22.3910     4.2090    12.6780 hn         1 G1S       0.338500
     54 H52        -21.1480     7.8250    13.2880 ha         1 G1S       0.170000
     55 H57        -22.8730    11.7940     3.7810 h1         1 G1S       0.059950
     56 H56        -24.4320    11.9410     4.6650 h1         1 G1S       0.059950
     57 H59        -24.0020    11.9380     1.5650 hc         1 G1S       0.061200
     58 H58        -25.3070    12.7690     2.4540 hc         1 G1S       0.061200
     59 H60        -26.3610    10.5790     3.1080 h1         1 G1S       0.059950
     60 H61        -25.4920     9.9440     1.6690 h1         1 G1S       0.059950
     61 H62        -21.8820     4.5980    17.4390 h1         1 G1S       0.097200
     62 H63        -20.5930     5.7940    17.7520 h1         1 G1S       0.097200
     63 H64        -22.0090    10.0230    19.0980 h1         1 G1S       0.049700
     64 H65        -23.3080     9.0160    19.7680 h1         1 G1S       0.049700
     65 H68        -21.4160     9.4330    21.4030 hc         1 G1S       0.049867
     66 H66        -21.6540     7.7050    21.1040 hc         1 G1S       0.049867
     67 H67        -20.3080     8.5690    20.3180 hc         1 G1S       0.049867
     68 H70        -25.2590     7.5280    18.9580 h1         1 G1S       0.049700
     69 H69        -26.1020     6.9630    17.5020 h1         1 G1S       0.049700
     70 H72        -26.1100     9.4570    17.6190 hc         1 G1S       0.049867
     71 H73        -24.3370     9.4930    17.6380 hc         1 G1S       0.049867
     72 H71        -25.1980     8.9020    16.2010 hc         1 G1S       0.049867
     73 H51        -20.8730     8.0950    15.9840 h4         1 G1S       0.150000
@<TRIPOS>BOND
     1     1     2 ar  
     2     1    15 ar  
     3     1    41 1   
     4     2     3 ar  
     5     2    16 1   
     6     3     4 ar  
     7     3    42 1   
     8     4     5 ar  
     9     4    14 1   
    10     5    15 ar  
    11     5    43 1   
    12     6     8 ar  
    13     6    16 1   
    14     6    17 ar  
    15     7    18 ar  
    16     7    19 ar  
    17     7    20 1   
    18     8    19 ar  
    19     8    44 1   
    20     9    10 1   
    21     9    12 1   
    22     9    23 1   
    23     9    45 1   
    24    10    46 1   
    25    10    47 1   
    26    10    48 1   
    27    11    25 1   
    28    11    26 2   
    29    11    73 1   
    30    12    49 1   
    31    12    50 1   
    32    12    51 1   
    33    13    22 1   
    34    13    24 2   
    35    13    26 1   
    36    14    22 1   
    37    14    27 2   
    38    15    23 1   
    39    17    18 ar  
    40    18    52 1   
    41    20    21 2   
    42    20    28 1   
    43    22    53 1   
    44    24    25 1   
    45    25    32 1   
    46    26    54 1   
    47    28    29 1   
    48    28    31 1   
    49    29    30 1   
    50    29    55 1   
    51    29    56 1   
    52    30    31 1   
    53    30    57 1   
    54    30    58 1   
    55    31    59 1   
    56    31    60 1   
    57    32    33 1   
    58    32    61 1   
    59    32    62 1   
    60    33    34 1   
    61    33    35 2   
    62    33    36 1   
    63    34    37 1   
    64    36    39 1   
    65    37    38 1   
    66    37    63 1   
    67    37    64 1   
    68    38    65 1   
    69    38    66 1   
    70    38    67 1   
    71    39    40 1   
    72    39    68 1   
    73    39    69 1   
    74    40    70 1   
    75    40    71 1   
    76    40    72 1   
@<TRIPOS>SUBSTRUCTURE
     1 G1S         1 TEMP              0 ****  ****    0 ROOT
