@<TRIPOS>MOLECULE
G1T
   37    39     1     0     0
SMALL
No Charge or Current Charge


@<TRIPOS>ATOM
      1 N1          -1.7070     1.5860    -0.3670 nc         1 G1T      -0.790100
      2 N3           0.9360    -2.8280     0.7320 nu         1 G1T      -0.657700
      3 C4           0.6250     0.8300     0.0460 ca         1 G1T      -0.161600
      4 C5           0.2730    -0.5090     0.3100 ca         1 G1T      -0.101000
      5 C6           1.2840    -1.4920     0.4460 ca         1 G1T       0.227000
      6 C7          -0.4070     1.9090    -0.1260 c          1 G1T       0.748100
      7 C8          -2.2180     0.3810    -0.2710 cd         1 G1T       0.774100
      8 C10         -5.1540    -1.3510     0.4240 c6         1 G1T      -0.099400
      9 C13         -4.5380     1.3900    -0.5140 c6         1 G1T       0.213800
     10 F3           5.2690    -0.4220    -0.4460 f          1 G1T      -0.110000
     11 C14          4.4790     0.6110    -0.0720 c3         1 G1T       0.359300
     12 F1           4.9610     1.0720     1.1030 f          1 G1T      -0.110000
     13 F2           4.6660     1.5890    -0.9870 f          1 G1T      -0.110000
     14 C2           3.0040     0.2090     0.0510 ca         1 G1T      -0.181300
     15 C3           1.9900     1.1770    -0.0770 ca         1 G1T      -0.017000
     16 O1          -0.0940     3.0890    -0.1060 o          1 G1T      -0.526100
     17 S           -1.4400    -1.0020     0.5470 ss         1 G1T      -0.071200
     18 O2           1.7900    -3.8870     0.2070 oh         1 G1T      -0.392300
     19 C1           2.6380    -1.1240     0.3220 ca         1 G1T      -0.078000
     20 N2          -3.5710     0.2570    -0.6230 nh         1 G1T      -0.724600
     21 C12         -5.4740     1.1630     0.6990 c6         1 G1T      -0.099400
     22 C11         -6.1860    -0.2110     0.6160 c6         1 G1T      -0.076400
     23 C9          -4.2320    -1.0670    -0.7870 c6         1 G1T       0.213800
     24 H1          -0.0590    -3.0800     0.7000 hn         1 G1T       0.456000
     25 H2          -4.5460    -1.4590     1.3320 hc         1 G1T       0.057200
     26 H3          -5.6740    -2.3070     0.2790 hc         1 G1T       0.057200
     27 H4          -4.0420     2.3660    -0.4040 h1         1 G1T       0.068200
     28 H5          -5.1440     1.4510    -1.4300 h1         1 G1T       0.068200
     29 H6           2.2680     2.2120    -0.2770 ha         1 G1T       0.162000
     30 H7           1.7220    -3.8500    -0.7780 ho         1 G1T       0.414000
     31 H8           3.4070    -1.8800     0.4530 ha         1 G1T       0.143000
     32 H9          -4.8870     1.2200     1.6260 hc         1 G1T       0.057200
     33 H10         -6.2180     1.9690     0.7500 hc         1 G1T       0.057200
     34 H11         -6.8950    -0.2090    -0.2240 hc         1 G1T       0.046700
     35 H12         -6.7770    -0.3860     1.5250 hc         1 G1T       0.046700
     36 H13         -3.5080    -1.8850    -0.9090 h1         1 G1T       0.068200
     37 H14         -4.8420    -1.0620    -1.7030 h1         1 G1T       0.068200
@<TRIPOS>BOND
     1     1     6 1   
     2     1     7 2   
     3     2     5 1   
     4     2    18 1   
     5     2    24 1   
     6     3     4 ar  
     7     3     6 1   
     8     3    15 ar  
     9     4     5 ar  
    10     4    17 1   
    11     5    19 ar  
    12     6    16 2   
    13     7    17 1   
    14     7    20 1   
    15     8    22 1   
    16     8    23 1   
    17     8    25 1   
    18     8    26 1   
    19     9    20 1   
    20     9    21 1   
    21     9    27 1   
    22     9    28 1   
    23    10    11 1   
    24    11    12 1   
    25    11    13 1   
    26    11    14 1   
    27    14    15 ar  
    28    14    19 ar  
    29    15    29 1   
    30    18    30 1   
    31    19    31 1   
    32    20    23 1   
    33    21    22 1   
    34    21    32 1   
    35    21    33 1   
    36    22    34 1   
    37    22    35 1   
    38    23    36 1   
    39    23    37 1   
@<TRIPOS>SUBSTRUCTURE
     1 G1T         1 TEMP              0 ****  ****    0 ROOT
