@<TRIPOS>MOLECULE
G1T
   37    39     1     0     0
SMALL
abcg2


@<TRIPOS>ATOM
      1 N1          -1.7780     1.4840    -0.4220 nc         1 G1T      -0.790100
      2 N3           0.9040    -2.8870     0.1790 nu         1 G1T      -0.657700
      3 C4           0.5720     0.7670    -0.1260 ca         1 G1T      -0.161600
      4 C5           0.2610    -0.5800    -0.0440 ca         1 G1T      -0.101000
      5 C6           1.2760    -1.5500     0.0870 ca         1 G1T       0.227000
      6 C7          -0.4720     1.8170    -0.2880 c          1 G1T       0.748100
      7 C8          -2.2870     0.2940    -0.3670 cd         1 G1T       0.774100
      8 C10         -5.1780    -1.1760     0.8110 c6         1 G1T      -0.099400
      9 C13         -4.5090     1.2460    -0.6530 c6         1 G1T       0.213800
     10 F3           5.1280    -0.0790    -0.5470 f          1 G1T      -0.110000
     11 C14          4.3310     0.6340     0.2600 c3         1 G1T       0.359300
     12 F1           4.7770     0.4340     1.5090 f          1 G1T      -0.110000
     13 F2           4.5320     1.9230    -0.0250 f          1 G1T      -0.110000
     14 C2           2.8960     0.2290     0.1210 ca         1 G1T      -0.181300
     15 C3           1.9060     1.1710    -0.0440 ca         1 G1T      -0.017000
     16 O1          -0.1390     2.9910    -0.3130 o          1 G1T      -0.526100
     17 S           -1.3770    -1.1880    -0.0510 ss         1 G1T      -0.071200
     18 O2           1.9350    -3.7900     0.2770 oh         1 G1T      -0.392300
     19 C1           2.5900    -1.1290     0.1890 ca         1 G1T      -0.078000
     20 N2          -3.5940     0.1110    -0.5370 nh         1 G1T      -0.724600
     21 C12         -5.4140     1.3120     0.5700 c6         1 G1T      -0.099400
     22 C11         -6.1530    -0.0050     0.7820 c6         1 G1T      -0.076400
     23 C9          -4.2910    -1.1650    -0.4270 c6         1 G1T       0.213800
     24 H1           0.2350    -3.1910    -0.5220 hn         1 G1T       0.456000
     25 H2          -4.5490    -1.1260     1.7040 hc         1 G1T       0.057200
     26 H3          -5.7130    -2.1270     0.8480 hc         1 G1T       0.057200
     27 H4          -3.9350     2.1580    -0.7770 h1         1 G1T       0.068200
     28 H5          -5.1050     1.0940    -1.5580 h1         1 G1T       0.068200
     29 H6           2.1290     2.2260    -0.1060 ha         1 G1T       0.162000
     30 H7           2.3720    -3.8430    -0.5870 ho         1 G1T       0.414000
     31 H8           3.3760    -1.8610     0.3150 ha         1 G1T       0.143000
     32 H9          -4.8100     1.5520     1.4500 hc         1 G1T       0.057200
     33 H10         -6.1210     2.1330     0.4360 hc         1 G1T       0.057200
     34 H11         -6.8680    -0.1530    -0.0340 hc         1 G1T       0.046700
     35 H12         -6.7330     0.0280     1.7050 hc         1 G1T       0.046700
     36 H13         -3.5960    -2.0020    -0.4190 h1         1 G1T       0.068200
     37 H14         -4.8990    -1.2810    -1.3280 h1         1 G1T       0.068200
@<TRIPOS>BOND
     1     1     6 1   
     2     1     7 2   
     3     2     5 1   
     4     2    18 1   
     5     2    24 1   
     6     3     4 ar  
     7     3     6 1   
     8     3    15 ar  
     9     4     5 ar  
    10     4    17 1   
    11     5    19 ar  
    12     6    16 2   
    13     7    17 1   
    14     7    20 1   
    15     8    22 1   
    16     8    23 1   
    17     8    25 1   
    18     8    26 1   
    19     9    20 1   
    20     9    21 1   
    21     9    27 1   
    22     9    28 1   
    23    10    11 1   
    24    11    12 1   
    25    11    13 1   
    26    11    14 1   
    27    14    15 ar  
    28    14    19 ar  
    29    15    29 1   
    30    18    30 1   
    31    19    31 1   
    32    20    23 1   
    33    21    22 1   
    34    21    32 1   
    35    21    33 1   
    36    22    34 1   
    37    22    35 1   
    38    23    36 1   
    39    23    37 1   
@<TRIPOS>SUBSTRUCTURE
     1 G1T         1 TEMP              0 ****  ****    0 ROOT
