@<TRIPOS>MOLECULE
G1U
   50    52     1     0     0
SMALL
No Charge or Current Charge


@<TRIPOS>ATOM
      1 C01         12.0570     7.7410    -9.5130 c3         1 G1U      -0.089100
      2 C02         11.0000     6.9380   -10.3040 c3         1 G1U      -0.014100
      3 C03          9.6980     6.7540    -9.5490 cc         1 G1U      -0.065300
      4 C04          9.3860     5.7580    -8.6350 cd         1 G1U      -0.220500
      5 C06          7.5250     7.0440    -8.8540 cd         1 G1U      -0.065300
      6 C07          6.1020     7.4760    -8.5830 c3         1 G1U      -0.033800
      7 C08          8.5110     7.5780    -9.6700 cc         1 G1U      -0.260600
      8 C09          8.2580     8.8240   -10.4950 c          1 G1U       0.608700
      9 C11          9.3310     9.4690   -11.3740 c3         1 G1U      -0.187100
     10 C12         10.1740     4.6700    -8.0880 cd         1 G1U       0.370500
     11 C13         11.5100     4.4570    -8.3520 cc         1 G1U      -0.271000
     12 C15         10.5050     2.8710    -6.8270 cc         1 G1U       0.438700
     13 C16         10.2140     1.7340    -5.8590 c3         1 G1U       0.132500
     14 C18         10.7240     0.5580    -3.7370 c6         1 G1U       0.170300
     15 C19         11.5640     0.5810    -2.4380 c6         1 G1U      -0.074900
     16 C20         11.2370     1.8380    -1.6020 c6         1 G1U       0.163500
     17 C22         11.4270     3.1090    -2.4600 c6         1 G1U      -0.074900
     18 C23         10.5920     3.0190    -3.7590 c6         1 G1U       0.170300
     19 N05          8.0670     5.9270    -8.2360 na         1 G1U      -0.087000
     20 N17         10.9260     1.7940    -4.5430 n3         1 G1U      -0.737600
     21 N24          9.5980     3.7660    -7.2080 nd         1 G1U      -0.682000
     22 O10          7.1660     9.3800   -10.4860 o          1 G1U      -0.572100
     23 S14         12.1010     3.0580    -7.5020 ss         1 G1U       0.019600
     24 H013        12.9780     7.8410   -10.0990 hc         1 G1U       0.035367
     25 H011        11.6920     8.7450    -9.2710 hc         1 G1U       0.035367
     26 H012        12.3030     7.2450    -8.5680 hc         1 G1U       0.035367
     27 H022        11.4060     5.9630   -10.5870 hc         1 G1U       0.046200
     28 H021        10.8460     7.3970   -11.2790 hc         1 G1U       0.046200
     29 H071         5.5040     7.4670    -9.5010 hc         1 G1U       0.058033
     30 H073         5.6080     6.8100    -7.8650 hc         1 G1U       0.058033
     31 H072         6.0690     8.4880    -8.1630 hc         1 G1U       0.058033
     32 H111         9.0160    10.4480   -11.7530 hc         1 G1U       0.057367
     33 H112        10.2760     9.5450   -10.8350 hc         1 G1U       0.057367
     34 H113         9.5380     8.8040   -12.2190 hc         1 G1U       0.057367
     35 H131        12.2110     5.0050    -8.9540 h4         1 G1U       0.165000
     36 H162         9.1280     1.6980    -5.6930 h1         1 G1U       0.059200
     37 H161        10.4790     0.8030    -6.3760 h1         1 G1U       0.059200
     38 H181         9.6610     0.4450    -3.4740 h1         1 G1U       0.034950
     39 H182        11.0080    -0.3290    -4.3220 h1         1 G1U       0.034950
     40 H191        11.3630    -0.3280    -1.8560 hc         1 G1U       0.056700
     41 H192        12.6320     0.5640    -2.6960 hc         1 G1U       0.056700
     42 H201        10.1880     1.7840    -1.2750 h1         1 G1U       0.010700
     43 H222        12.4870     3.2360    -2.7190 hc         1 G1U       0.056700
     44 H221        11.1280     4.0000    -1.8930 hc         1 G1U       0.056700
     45 H231        10.7830     3.9240    -4.3550 h1         1 G1U       0.034950
     46 H232         9.5220     3.0240    -3.4990 h1         1 G1U       0.034950
     47 H051         7.5860     5.3240    -7.5760 hn         1 G1U       0.365000
     48 N21         12.0670     1.8940    -0.3820 n8         1 G1U      -1.000200
     49 H212        11.7570     2.6880     0.1900 hn         1 G1U       0.395000
     50 H211        11.8460     1.0800     0.2030 hn         1 G1U       0.395000
@<TRIPOS>BOND
     1     1     2 1   
     2     1    24 1   
     3     1    25 1   
     4     1    26 1   
     5     2     3 1   
     6     2    27 1   
     7     2    28 1   
     8     3     4 2   
     9     3     7 1   
    10     4    10 1   
    11     4    19 1   
    12     5     6 1   
    13     5     7 2   
    14     5    19 1   
    15     6    29 1   
    16     6    30 1   
    17     6    31 1   
    18     7     8 1   
    19     8     9 1   
    20     8    22 2   
    21     9    32 1   
    22     9    33 1   
    23     9    34 1   
    24    10    11 2   
    25    10    21 1   
    26    11    23 1   
    27    11    35 1   
    28    12    13 1   
    29    12    21 2   
    30    12    23 1   
    31    13    20 1   
    32    13    36 1   
    33    13    37 1   
    34    14    15 1   
    35    14    20 1   
    36    14    38 1   
    37    14    39 1   
    38    15    16 1   
    39    15    40 1   
    40    15    41 1   
    41    16    17 1   
    42    16    42 1   
    43    16    48 1   
    44    17    18 1   
    45    17    43 1   
    46    17    44 1   
    47    18    20 1   
    48    18    45 1   
    49    18    46 1   
    50    19    47 1   
    51    48    49 1   
    52    48    50 1   
@<TRIPOS>SUBSTRUCTURE
     1 G1U         1 TEMP              0 ****  ****    0 ROOT
