@<TRIPOS>MOLECULE
G1U
   50    52     1     0     0
SMALL
abcg2


@<TRIPOS>ATOM
      1 C01         11.9270     8.0990    -9.3610 c3         1 G1U      -0.089100
      2 C02         11.1190     7.0380   -10.1210 c3         1 G1U      -0.014100
      3 C03          9.7240     6.8720    -9.5970 cc         1 G1U      -0.065300
      4 C04          9.3810     6.0030    -8.5770 cd         1 G1U      -0.220500
      5 C06          7.4710     7.0450    -9.1800 cd         1 G1U      -0.065300
      6 C07          6.0160     7.3450    -9.1200 c3         1 G1U      -0.033800
      7 C08          8.5070     7.5510    -9.9880 cc         1 G1U      -0.260600
      8 C09          8.2690     8.5690   -11.0040 c          1 G1U       0.608700
      9 C11          9.3940     9.0430   -11.8950 c3         1 G1U      -0.187100
     10 C12         10.1280     5.0560    -7.7710 cd         1 G1U       0.370500
     11 C13         11.4860     4.9050    -7.6580 cc         1 G1U      -0.271000
     12 C15         10.1660     3.3850    -6.2950 cc         1 G1U       0.438700
     13 C16          9.6880     2.2830    -5.4000 c3         1 G1U       0.132500
     14 C18         10.4760     0.6610    -3.7830 c6         1 G1U       0.170300
     15 C19         11.5760     0.3590    -2.7740 c6         1 G1U      -0.074900
     16 C20         11.6030     1.3990    -1.6590 c6         1 G1U       0.163500
     17 C22         11.7030     2.7950    -2.2660 c6         1 G1U      -0.074900
     18 C23         10.5980     3.0240    -3.2880 c6         1 G1U       0.170300
     19 N05          8.0190     6.1310    -8.3590 na         1 G1U      -0.087000
     20 N17         10.6390     2.0050    -4.3390 n3         1 G1U      -0.737600
     21 N24          9.4000     4.1810    -6.9750 nd         1 G1U      -0.682000
     22 O10          7.1470     9.0570   -11.1640 o          1 G1U      -0.572100
     23 S14         11.8640     3.6400    -6.5530 ss         1 G1U       0.019600
     24 H013        12.9420     8.1720    -9.7570 hc         1 G1U       0.035367
     25 H011        11.4580     9.0810    -9.4420 hc         1 G1U       0.035367
     26 H012        11.9930     7.8530    -8.2990 hc         1 G1U       0.035367
     27 H022        11.6340     6.0780   -10.0510 hc         1 G1U       0.046200
     28 H021        11.1020     7.2870   -11.1790 hc         1 G1U       0.046200
     29 H071         5.5400     7.1710   -10.0860 hc         1 G1U       0.058033
     30 H073         5.5340     6.7160    -8.3700 hc         1 G1U       0.058033
     31 H072         5.8410     8.3920    -8.8680 hc         1 G1U       0.058033
     32 H111         9.0220     9.8430   -12.5310 hc         1 G1U       0.057367
     33 H112        10.2410     9.4060   -11.3130 hc         1 G1U       0.057367
     34 H113         9.7530     8.2250   -12.5230 hc         1 G1U       0.057367
     35 H131        12.2720     5.4780    -8.1160 h4         1 G1U       0.165000
     36 H162         8.6870     2.5500    -5.0260 h1         1 G1U       0.059200
     37 H161         9.5720     1.3790    -6.0040 h1         1 G1U       0.059200
     38 H181         9.4900     0.5560    -3.2980 h1         1 G1U       0.034950
     39 H182        10.5120    -0.0560    -4.6050 h1         1 G1U       0.034950
     40 H191        11.4210    -0.6390    -2.3550 hc         1 G1U       0.056700
     41 H192        12.5460     0.3580    -3.2810 hc         1 G1U       0.056700
     42 H201        10.6420     1.3370    -1.1250 h1         1 G1U       0.010700
     43 H222        12.6770     2.9030    -2.7510 hc         1 G1U       0.056700
     44 H221        11.6360     3.5540    -1.4820 hc         1 G1U       0.056700
     45 H231        10.7130     4.0060    -3.7500 h1         1 G1U       0.034950
     46 H232         9.6140     3.0140    -2.7880 h1         1 G1U       0.034950
     47 H051         7.5170     5.5880    -7.6730 hn         1 G1U       0.365000
     48 N21         12.7380     1.1520    -0.7600 n8         1 G1U      -1.000200
     49 H212        12.7180     1.8220     0.0030 hn         1 G1U       0.395000
     50 H211        12.6390     0.2370    -0.3310 hn         1 G1U       0.395000
@<TRIPOS>BOND
     1     1     2 1   
     2     1    24 1   
     3     1    25 1   
     4     1    26 1   
     5     2     3 1   
     6     2    27 1   
     7     2    28 1   
     8     3     4 2   
     9     3     7 1   
    10     4    10 1   
    11     4    19 1   
    12     5     6 1   
    13     5     7 2   
    14     5    19 1   
    15     6    29 1   
    16     6    30 1   
    17     6    31 1   
    18     7     8 1   
    19     8     9 1   
    20     8    22 2   
    21     9    32 1   
    22     9    33 1   
    23     9    34 1   
    24    10    11 2   
    25    10    21 1   
    26    11    23 1   
    27    11    35 1   
    28    12    13 1   
    29    12    21 2   
    30    12    23 1   
    31    13    20 1   
    32    13    36 1   
    33    13    37 1   
    34    14    15 1   
    35    14    20 1   
    36    14    38 1   
    37    14    39 1   
    38    15    16 1   
    39    15    40 1   
    40    15    41 1   
    41    16    17 1   
    42    16    42 1   
    43    16    48 1   
    44    17    18 1   
    45    17    43 1   
    46    17    44 1   
    47    18    20 1   
    48    18    45 1   
    49    18    46 1   
    50    19    47 1   
    51    48    49 1   
    52    48    50 1   
@<TRIPOS>SUBSTRUCTURE
     1 G1U         1 TEMP              0 ****  ****    0 ROOT
