@<TRIPOS>MOLECULE
G1W
   57    60     1     0     0
SMALL
bcc


@<TRIPOS>ATOM
      1 C1           3.5900     3.9380    -0.6690 ca         1 G1W      -0.213000
      2 C2           4.2800     3.1800     0.2730 ca         1 G1W       0.195900
      3 C3           4.0080     1.8600     0.5210 ca         1 G1W      -0.236000
      4 C4           2.9860     1.2450    -0.2130 ca         1 G1W       0.221600
      5 C5           2.2700     1.9720    -1.1760 ca         1 G1W      -0.229600
      6 C6           2.5920     3.3200    -1.3820 ca         1 G1W      -0.015000
      7 C7           1.2100     1.3470    -1.9650 c          1 G1W       0.598900
      8 O8           0.5950     1.9710    -2.8280 o          1 G1W      -0.565100
      9 N9           2.6780    -0.0830    -0.0080 na         1 G1W      -0.386200
     10 C10          3.4210    -0.8570     0.9430 ca         1 G1W       0.080600
     11 C11          4.5340    -1.5660     0.5180 ca         1 G1W      -0.103500
     12 C12          5.2460    -2.3220     1.4390 ca         1 G1W      -0.125500
     13 C13          4.8450    -2.3570     2.7680 ca         1 G1W      -0.109000
     14 C14          3.7320    -1.6360     3.1820 ca         1 G1W      -0.125500
     15 C15          3.0120    -0.8820     2.2680 ca         1 G1W      -0.103500
     16 C16          0.9450    -0.0490    -1.6740 cc         1 G1W      -0.234400
     17 C17         -0.1470    -0.7510    -2.4410 c3         1 G1W       0.022100
     18 C18         -1.5090    -0.5880    -1.8080 ca         1 G1W      -0.023300
     19 C19         -2.0750    -1.6270    -1.0740 ca         1 G1W      -0.137000
     20 C20         -3.3150    -1.4860    -0.4720 ca         1 G1W      -0.035000
     21 C21         -4.0010    -0.2910    -0.6190 ca         1 G1W      -0.269500
     22 C22         -3.4710     0.7540    -1.3640 ca         1 G1W      -0.035000
     23 C23         -2.2270     0.6010    -1.9510 ca         1 G1W      -0.137000
     24 S24         -5.5860    -0.0920     0.1420 sy         1 G1W       1.083300
     25 F25          5.2580     3.7690     0.9670 f          1 G1W      -0.134900
     26 C26          1.6920    -0.6800    -0.7310 cd         1 G1W       0.140800
     27 C27          1.4480    -2.1260    -0.3890 c          1 G1W       0.645300
     28 C28         -5.2250     0.8210     1.6380 c3         1 G1W      -0.199600
     29 C29         -6.4990     1.0910     2.4250 c3         1 G1W       0.168400
     30 O30         -6.1180     1.8280     3.5610 oh         1 G1W      -0.590800
     31 O31          0.7300    -2.4750     0.5070 o          1 G1W      -0.501000
     32 O32          2.1100    -2.9170    -1.2030 os         1 G1W      -0.401900
     33 C33          2.0040    -4.3310    -0.9810 c3         1 G1W       0.124700
     34 O34         -6.4130     0.7530    -0.7180 o          1 G1W      -0.596800
     35 O35         -6.0910    -1.4110     0.5180 o          1 G1W      -0.596800
     36 H1           3.8400     4.9770    -0.8290 ha         1 G1W       0.159000
     37 H2           4.5800     1.3240     1.2660 ha         1 G1W       0.165000
     38 H3           2.0400     3.8800    -2.1240 ha         1 G1W       0.162000
     39 H4           4.8420    -1.5260    -0.5190 ha         1 G1W       0.154000
     40 H5           6.1140    -2.8810     1.1170 ha         1 G1W       0.143000
     41 H6           5.4010    -2.9490     3.4830 ha         1 G1W       0.140000
     42 H7           3.4200    -1.6650     4.2170 ha         1 G1W       0.143000
     43 H8           2.1410    -0.3210     2.5790 ha         1 G1W       0.154000
     44 H9          -0.1700    -0.3500    -3.4550 hc         1 G1W       0.067200
     45 H10          0.0750    -1.8140    -2.5490 hc         1 G1W       0.067200
     46 H11         -1.5520    -2.5690    -0.9760 ha         1 G1W       0.148000
     47 H12         -3.7360    -2.3050     0.0950 ha         1 G1W       0.154500
     48 H13         -4.0160     1.6800    -1.4960 ha         1 G1W       0.154500
     49 H14         -1.8130     1.4100    -2.5350 ha         1 G1W       0.148000
     50 H15         -4.5190     0.2230     2.2170 h1         1 G1W       0.107700
     51 H16         -4.7390     1.7510     1.3370 h1         1 G1W       0.107700
     52 H17         -7.2070     1.6450     1.7990 h1         1 G1W       0.037200
     53 H18         -6.9710     0.1410     2.6970 h1         1 G1W       0.037200
     54 H19         -6.9080     2.0010     4.0810 ho         1 G1W       0.407000
     55 H20          2.3770    -4.5960     0.0070 h1         1 G1W       0.055367
     56 H21          0.9740    -4.6680    -1.0880 h1         1 G1W       0.055367
     57 H22          2.6220    -4.7950    -1.7430 h1         1 G1W       0.055367
@<TRIPOS>BOND
     1     1     2 ar  
     2     1     6 ar  
     3     1    36 1   
     4     2     3 ar  
     5     2    25 1   
     6     3     4 ar  
     7     3    37 1   
     8     4     5 ar  
     9     4     9 1   
    10     5     6 ar  
    11     5     7 1   
    12     6    38 1   
    13     7     8 2   
    14     7    16 1   
    15     9    10 1   
    16     9    26 1   
    17    10    11 ar  
    18    10    15 ar  
    19    11    12 ar  
    20    11    39 1   
    21    12    13 ar  
    22    12    40 1   
    23    13    14 ar  
    24    13    41 1   
    25    14    15 ar  
    26    14    42 1   
    27    15    43 1   
    28    16    17 1   
    29    16    26 2   
    30    17    18 1   
    31    17    44 1   
    32    17    45 1   
    33    18    19 ar  
    34    18    23 ar  
    35    19    20 ar  
    36    19    46 1   
    37    20    21 ar  
    38    20    47 1   
    39    21    22 ar  
    40    21    24 1   
    41    22    23 ar  
    42    22    48 1   
    43    23    49 1   
    44    24    28 1   
    45    24    34 2   
    46    24    35 2   
    47    26    27 1   
    48    27    31 2   
    49    27    32 1   
    50    28    29 1   
    51    28    50 1   
    52    28    51 1   
    53    29    30 1   
    54    29    52 1   
    55    29    53 1   
    56    30    54 1   
    57    32    33 1   
    58    33    55 1   
    59    33    56 1   
    60    33    57 1   
@<TRIPOS>SUBSTRUCTURE
     1 G1W         1 TEMP              0 ****  ****    0 ROOT
