@<TRIPOS>MOLECULE
G1W
   57    60     1     0     0
SMALL
No Charge or Current Charge


@<TRIPOS>ATOM
      1 C1           5.3770     2.9910    -1.8680 ca         1 G1W      -0.195000
      2 C2           5.8610     2.1260    -0.8790 ca         1 G1W       0.231000
      3 C3           5.0460     1.1070    -0.3720 ca         1 G1W      -0.218000
      4 C4           3.7420     0.9390    -0.8610 ca         1 G1W       0.360000
      5 C5           3.2660     1.7830    -1.8500 ca         1 G1W      -0.229600
      6 C6           4.0730     2.8240    -2.3580 ca         1 G1W       0.003000
      7 C7           1.9060     1.5360    -2.3550 c          1 G1W       0.598900
      8 O8           1.3430     2.3910    -3.0320 o          1 G1W      -0.565100
      9 N9           2.9170    -0.0180    -0.2840 na         1 G1W      -0.663000
     10 C10          2.6520    -0.0480     1.0850 ca         1 G1W       0.219000
     11 C11          3.4420    -0.8290     1.9490 ca         1 G1W      -0.085500
     12 C12          3.1790    -0.8470     3.3300 ca         1 G1W      -0.107500
     13 C13          2.1240    -0.0790     3.8540 ca         1 G1W      -0.091000
     14 C14          1.3360     0.7080     2.9970 ca         1 G1W      -0.107500
     15 C15          1.6020     0.7250     1.6160 ca         1 G1W      -0.085500
     16 C16          1.3360     0.1930    -2.0450 cc         1 G1W      -0.234400
     17 C17          0.0530    -0.0970    -2.8340 c3         1 G1W       0.022100
     18 C18         -1.2030    -0.0900    -1.9630 ca         1 G1W      -0.023300
     19 C19         -2.1780    -1.0950    -2.1100 ca         1 G1W      -0.119000
     20 C20         -3.3290    -1.1000    -1.3020 ca         1 G1W      -0.017000
     21 C21         -3.5210    -0.0860    -0.3420 ca         1 G1W      -0.269500
     22 C22         -2.5550     0.9310    -0.2010 ca         1 G1W      -0.017000
     23 C23         -1.4070     0.9280    -1.0110 ca         1 G1W      -0.119000
     24 S24         -4.9870    -0.0970     0.7100 sy         1 G1W       1.052500
     25 F25          7.1150     2.2830    -0.4030 f          1 G1W      -0.170000
     26 C26          1.9000    -0.6510    -1.0600 cd         1 G1W       0.140800
     27 C27          1.4050    -2.0680    -0.7380 c          1 G1W       0.596300
     28 C28         -4.4550    -1.0570     2.1320 c3         1 G1W      -0.310400
     29 C29         -5.5730    -1.1890     3.1670 c3         1 G1W       0.191600
     30 O30         -5.0740    -1.9610     4.2600 oh         1 G1W      -0.653000
     31 O31          1.8840    -2.7410     0.1690 o          1 G1W      -0.452000
     32 O32          0.4600    -2.6040    -1.5790 os         1 G1W      -0.425100
     33 C33         -0.0200    -3.9380    -1.3240 c3         1 G1W       0.147900
     34 O34         -5.2350     1.2690     1.1880 o          1 G1W      -0.526000
     35 O35         -6.0410    -0.8740     0.0430 o          1 G1W      -0.526000
     36 H1           6.0120     3.7840    -2.2550 ha         1 G1W       0.141000
     37 H2           5.4290     0.4570     0.4060 ha         1 G1W       0.147000
     38 H3           3.6990     3.4900    -3.1350 ha         1 G1W       0.144000
     39 H4           4.2520    -1.4290     1.5430 ha         1 G1W       0.136000
     40 H5           3.7890    -1.4560     3.9920 ha         1 G1W       0.125000
     41 H6           1.9190    -0.0920     4.9230 ha         1 G1W       0.122000
     42 H7           0.5210     1.3060     3.4010 ha         1 G1W       0.125000
     43 H8           0.9960     1.3390     0.9570 ha         1 G1W       0.136000
     44 H9          -0.1070     0.6110    -3.6540 hc         1 G1W       0.067200
     45 H10          0.1560    -1.0460    -3.3720 hc         1 G1W       0.067200
     46 H11         -2.0420    -1.8840    -2.8460 ha         1 G1W       0.130000
     47 H12         -4.0630    -1.8950    -1.4270 ha         1 G1W       0.136500
     48 H13         -2.6870     1.7240     0.5340 ha         1 G1W       0.136500
     49 H14         -0.6760     1.7240    -0.8970 ha         1 G1W       0.130000
     50 H15         -4.1530    -2.0420     1.7610 h1         1 G1W       0.107700
     51 H16         -3.5890    -0.5430     2.5620 h1         1 G1W       0.107700
     52 H17         -5.8830    -0.1920     3.5120 h1         1 G1W       0.037200
     53 H18         -6.4440    -1.6830     2.7150 h1         1 G1W       0.037200
     54 H19         -5.8040    -2.0360     4.9140 ho         1 G1W       0.446000
     55 H20          0.7990    -4.6660    -1.3710 h1         1 G1W       0.055367
     56 H21         -0.4890    -4.0020    -0.3330 h1         1 G1W       0.055367
     57 H22         -0.7710    -4.2220    -2.0720 h1         1 G1W       0.055367
@<TRIPOS>BOND
     1     1     2 ar  
     2     1     6 ar  
     3     1    36 1   
     4     2     3 ar  
     5     2    25 1   
     6     3     4 ar  
     7     3    37 1   
     8     4     5 ar  
     9     4     9 1   
    10     5     6 ar  
    11     5     7 1   
    12     6    38 1   
    13     7     8 2   
    14     7    16 1   
    15     9    10 1   
    16     9    26 1   
    17    10    11 ar  
    18    10    15 ar  
    19    11    12 ar  
    20    11    39 1   
    21    12    13 ar  
    22    12    40 1   
    23    13    14 ar  
    24    13    41 1   
    25    14    15 ar  
    26    14    42 1   
    27    15    43 1   
    28    16    17 1   
    29    16    26 2   
    30    17    18 1   
    31    17    44 1   
    32    17    45 1   
    33    18    19 ar  
    34    18    23 ar  
    35    19    20 ar  
    36    19    46 1   
    37    20    21 ar  
    38    20    47 1   
    39    21    22 ar  
    40    21    24 1   
    41    22    23 ar  
    42    22    48 1   
    43    23    49 1   
    44    24    28 1   
    45    24    34 2   
    46    24    35 2   
    47    26    27 1   
    48    27    31 2   
    49    27    32 1   
    50    28    29 1   
    51    28    50 1   
    52    28    51 1   
    53    29    30 1   
    54    29    52 1   
    55    29    53 1   
    56    30    54 1   
    57    32    33 1   
    58    33    55 1   
    59    33    56 1   
    60    33    57 1   
@<TRIPOS>SUBSTRUCTURE
     1 G1W         1 TEMP              0 ****  ****    0 ROOT
