@<TRIPOS>MOLECULE
G1X
   22    22     1     0     0
SMALL
bcc


@<TRIPOS>ATOM
      1 N          -15.0620   -18.5110    23.8650 n8         1 G1X      -0.896800
      2 CA         -16.2290   -18.1820    23.0620 c3         1 G1X       0.012500
      3 C          -17.5440   -18.9220    23.4390 c          1 G1X       0.909600
      4 O          -18.4760   -18.8410    22.6140 o          1 G1X      -0.830300
      5 CB         -15.8940   -18.3570    21.5730 c3         1 G1X      -0.037200
      6 CG         -14.6910   -17.5530    21.2010 cc         1 G1X       0.021800
      7 CD1        -13.3670   -18.1470    21.4190 cc         1 G1X      -0.023000
      8 CD2        -14.8040   -16.3050    20.7080 cd         1 G1X      -0.275200
      9 CE1        -12.2190   -17.5050    21.1660 cd         1 G1X      -0.272200
     10 CE2        -13.6310   -15.5040    20.4050 c          1 G1X       0.477300
     11 CZ         -12.2450   -16.1370    20.6600 c          1 G1X       0.470300
     12 OE2        -13.6800   -14.3750    19.9680 o          1 G1X      -0.498100
     13 OZ         -11.2510   -15.4880    20.4280 o          1 G1X      -0.497100
     14 H          -15.2890   -18.3570    24.8400 hn         1 G1X       0.330800
     15 H2         -14.8910   -19.5090    23.7990 hn         1 G1X       0.330800
     16 HA         -16.4250   -17.1110    23.2110 h1         1 G1X       0.044700
     17 HB2        -16.7500   -18.0470    20.9780 hc         1 G1X       0.061200
     18 HB3        -15.7120   -19.4160    21.3610 hc         1 G1X       0.061200
     19 HD1        -13.3390   -19.1670    21.7790 ha         1 G1X       0.141000
     20 HD2        -15.7770   -15.8610    20.5310 ha         1 G1X       0.157000
     21 HE1        -11.2580   -17.9760    21.3280 ha         1 G1X       0.142000
     22 OXT        -17.5640   -19.4970    24.5430 o          1 G1X      -0.830300
@<TRIPOS>BOND
     1     1     2 1   
     2     1    14 1   
     3     1    15 1   
     4     2     3 1   
     5     2     5 1   
     6     2    16 1   
     7     3     4 1   
     8     3    22 1   
     9     5     6 1   
    10     5    17 1   
    11     5    18 1   
    12     6     7 1   
    13     6     8 2   
    14     7     9 2   
    15     7    19 1   
    16     8    10 1   
    17     8    20 1   
    18     9    11 1   
    19     9    21 1   
    20    10    11 1   
    21    10    12 2   
    22    11    13 2   
@<TRIPOS>SUBSTRUCTURE
     1 G1X         1 TEMP              0 ****  ****    0 ROOT
