@<TRIPOS>MOLECULE
G1X
   22    22     1     0     0
SMALL
No Charge or Current Charge


@<TRIPOS>ATOM
      1 N          -15.2100   -18.4950    24.1320 n8         1 G1X      -0.896800
      2 CA         -16.2760   -18.1910    23.1000 c3         1 G1X       0.012500
      3 C          -17.6960   -18.8730    23.3130 c          1 G1X       0.909600
      4 O          -18.6820   -18.1530    23.4300 o          1 G1X      -0.830300
      5 CB         -15.7510   -18.4830    21.6680 c3         1 G1X      -0.037200
      6 CG         -14.5840   -17.6180    21.2520 cc         1 G1X       0.021800
      7 CD1        -13.2440   -18.1120    21.4780 cc         1 G1X      -0.023000
      8 CD2        -14.7590   -16.3820    20.6530 cd         1 G1X      -0.275200
      9 CE1        -12.1180   -17.3940    21.1220 cd         1 G1X      -0.272200
     10 CE2        -13.6450   -15.5090    20.2260 c          1 G1X       0.477300
     11 CZ         -12.1880   -16.0660    20.4840 c          1 G1X       0.470300
     12 OE2        -13.8470   -14.4160    19.7000 o          1 G1X      -0.498100
     13 OZ         -11.1750   -15.4400    20.1750 o          1 G1X      -0.497100
     14 H          -15.5450   -18.2060    25.0580 hn         1 G1X       0.330800
     15 H2         -15.1130   -19.5130    24.2140 hn         1 G1X       0.330800
     16 HA         -16.4560   -17.1090    23.1530 h1         1 G1X       0.044700
     17 HB2        -16.5740   -18.3290    20.9590 hc         1 G1X       0.061200
     18 HB3        -15.4880   -19.5450    21.5870 hc         1 G1X       0.061200
     19 HD1        -13.1310   -19.0840    21.9490 ha         1 G1X       0.141000
     20 HD2        -15.7470   -15.9800    20.4660 ha         1 G1X       0.157000
     21 HE1        -11.1190   -17.7770    21.2990 ha         1 G1X       0.142000
     22 OXT        -17.7490   -20.0910    23.4610 o          1 G1X      -0.830300
@<TRIPOS>BOND
     1     1     2 1   
     2     1    14 1   
     3     1    15 1   
     4     2     3 1   
     5     2     5 1   
     6     2    16 1   
     7     3     4 1   
     8     3    22 1   
     9     5     6 1   
    10     5    17 1   
    11     5    18 1   
    12     6     7 1   
    13     6     8 2   
    14     7     9 2   
    15     7    19 1   
    16     8    10 1   
    17     8    20 1   
    18     9    11 1   
    19     9    21 1   
    20    10    11 1   
    21    10    12 2   
    22    11    13 2   
@<TRIPOS>SUBSTRUCTURE
     1 G1X         1 TEMP              0 ****  ****    0 ROOT
