@<TRIPOS>MOLECULE
G1Y
   43    46     1     0     0
SMALL
bcc


@<TRIPOS>ATOM
      1 O01         -3.9020     1.3320     1.6270 o          1 G1Y      -0.603100
      2 C02         -3.7510     0.3970     0.8520 c          1 G1Y       0.680700
      3 C03         -4.8790    -0.0750    -0.0110 ca         1 G1Y      -0.151600
      4 C04         -4.6750    -0.6630    -1.2570 ca         1 G1Y      -0.091000
      5 C05         -5.7560    -1.0570    -2.0320 ca         1 G1Y      -0.138500
      6 C06         -7.0510    -0.8730    -1.5660 ca         1 G1Y      -0.109000
      7 C07         -7.2610    -0.2810    -0.3270 ca         1 G1Y      -0.138500
      8 C08         -6.1820     0.1260     0.4420 ca         1 G1Y      -0.091000
      9 N09         -2.5950    -0.2760     0.7200 ns         1 G1Y      -0.568900
     10 C10         -1.3710     0.0710     1.4010 c3         1 G1Y       0.144300
     11 C11         -0.3130     0.6110     0.4680 ca         1 G1Y      -0.117300
     12 C12         -0.6210     1.5890    -0.4730 ca         1 G1Y      -0.112000
     13 C13          0.3760     2.0870    -1.3000 ca         1 G1Y      -0.134000
     14 C14          1.6770     1.6210    -1.1970 ca         1 G1Y      -0.125000
     15 C15          2.0060     0.6400    -0.2610 ca         1 G1Y      -0.097500
     16 C16          3.3710     0.1310    -0.1410 cc         1 G1Y       0.353800
     17 C17          4.4560     0.4110    -0.9430 cd         1 G1Y      -0.225600
     18 N18          5.4820    -0.2890    -0.3930 na         1 G1Y      -0.193900
     19 C19          6.8760    -0.5580    -0.6870 c5         1 G1Y       0.043300
     20 C20          7.3440    -1.2080     0.6290 c5         1 G1Y      -0.099400
     21 C21          6.0760    -1.7940     1.2860 c5         1 G1Y      -0.102700
     22 C22          5.0060    -0.9590     0.6710 cd         1 G1Y       0.388800
     23 N23          3.7350    -0.7350     0.8640 nc         1 G1Y      -0.655000
     24 C24          0.9920     0.1460     0.5630 ca         1 G1Y      -0.097000
     25 H1          -3.6750    -0.7970    -1.6520 ha         1 G1Y       0.141500
     26 H2          -5.5850    -1.5050    -3.0020 ha         1 G1Y       0.134000
     27 H3          -7.8940    -1.1830    -2.1700 ha         1 G1Y       0.132000
     28 H4          -8.2680    -0.1340     0.0400 ha         1 G1Y       0.134000
     29 H5          -6.3530     0.5950     1.4010 ha         1 G1Y       0.141500
     30 H6          -2.5610    -1.0800     0.1140 hn         1 G1Y       0.316500
     31 H7          -1.6050     0.8090     2.1670 h1         1 G1Y       0.066700
     32 H8          -0.9870    -0.8110     1.9180 h1         1 G1Y       0.066700
     33 H9          -1.6320     1.9680    -0.5630 ha         1 G1Y       0.138000
     34 H10          0.1390     2.8500    -2.0310 ha         1 G1Y       0.129000
     35 H11          2.4370     2.0320    -1.8510 ha         1 G1Y       0.124000
     36 H12          4.5720     1.0320    -1.8150 h4         1 G1Y       0.178000
     37 H13          6.9550    -1.2370    -1.5380 h1         1 G1Y       0.061700
     38 H14          8.1120    -1.9590     0.4570 hc         1 G1Y       0.060200
     39 H15          5.9370    -2.8470     1.0270 hc         1 G1Y       0.071700
     40 H17          1.2280    -0.6220     1.2900 ha         1 G1Y       0.149000
     41 H18          7.4140     0.3570    -0.9250 h1         1 G1Y       0.061700
     42 H19          7.7700    -0.4410     1.2770 hc         1 G1Y       0.060200
     43 H20          6.0990    -1.7250     2.3730 hc         1 G1Y       0.071700
@<TRIPOS>BOND
     1     1     2 2   
     2     2     3 1   
     3     2     9 1   
     4     3     4 ar  
     5     3     8 ar  
     6     4     5 ar  
     7     4    25 1   
     8     5     6 ar  
     9     5    26 1   
    10     6     7 ar  
    11     6    27 1   
    12     7     8 ar  
    13     7    28 1   
    14     8    29 1   
    15     9    10 1   
    16     9    30 1   
    17    10    11 1   
    18    10    31 1   
    19    10    32 1   
    20    11    12 ar  
    21    11    24 ar  
    22    12    13 ar  
    23    12    33 1   
    24    13    14 ar  
    25    13    34 1   
    26    14    15 ar  
    27    14    35 1   
    28    15    16 1   
    29    15    24 ar  
    30    16    17 2   
    31    16    23 1   
    32    17    18 1   
    33    17    36 1   
    34    18    19 1   
    35    18    22 1   
    36    19    20 1   
    37    19    37 1   
    38    19    41 1   
    39    20    21 1   
    40    20    38 1   
    41    20    42 1   
    42    21    22 1   
    43    21    39 1   
    44    21    43 1   
    45    22    23 2   
    46    24    40 1   
@<TRIPOS>SUBSTRUCTURE
     1 G1Y         1 TEMP              0 ****  ****    0 ROOT
