@<TRIPOS>MOLECULE
G1Y
   43    46     1     0     0
SMALL
No Charge or Current Charge


@<TRIPOS>ATOM
      1 O01         -4.0670     0.7810     2.1550 o          1 G1Y      -0.603100
      2 C02         -3.6850     0.4170     1.0510 c          1 G1Y       0.613700
      3 C03         -4.5120    -0.4950     0.1660 ca         1 G1Y      -0.151600
      4 C04         -4.0660    -0.9170    -1.1120 ca         1 G1Y      -0.073000
      5 C05         -4.8620    -1.7640    -1.9030 ca         1 G1Y      -0.120500
      6 C06         -6.1100    -2.2030    -1.4360 ca         1 G1Y      -0.091000
      7 C07         -6.5640    -1.7950    -0.1730 ca         1 G1Y      -0.120500
      8 C08         -5.7720    -0.9480     0.6220 ca         1 G1Y      -0.073000
      9 N09         -2.4690     0.8260     0.5540 ns         1 G1Y      -0.501900
     10 C10         -1.5400     1.7020     1.2620 c3         1 G1Y       0.144300
     11 C11         -0.2870     1.9450     0.4360 ca         1 G1Y      -0.117300
     12 C12         -0.2210     3.0410    -0.4430 ca         1 G1Y      -0.094000
     13 C13          0.9380     3.2610    -1.2040 ca         1 G1Y      -0.116000
     14 C14          2.0320     2.3870    -1.0960 ca         1 G1Y      -0.107000
     15 C15          1.9800     1.2710    -0.2300 ca         1 G1Y      -0.097500
     16 C16          3.1230     0.3520    -0.0870 cc         1 G1Y       0.288500
     17 C17          4.1920     0.3640    -0.9590 cd         1 G1Y      -0.193000
     18 N18          4.9880    -0.6460    -0.4620 na         1 G1Y      -0.172500
     19 C19          6.2370    -1.2520    -0.8240 c5         1 G1Y       0.072600
     20 C20          6.4930    -2.3120     0.3330 c5         1 G1Y      -0.099400
     21 C21          5.1540    -2.3120     1.2150 c5         1 G1Y      -0.102700
     22 C22          4.3940    -1.1810     0.6080 cd         1 G1Y       0.388800
     23 N23          3.2350    -0.6140     0.8880 nc         1 G1Y      -0.655000
     24 C24          0.8120     1.0700     0.5400 ca         1 G1Y      -0.079000
     25 H1          -3.1060    -0.5990    -1.5100 ha         1 G1Y       0.123500
     26 H2          -4.5090    -2.0800    -2.8830 ha         1 G1Y       0.116000
     27 H3          -6.7240    -2.8590    -2.0510 ha         1 G1Y       0.114000
     28 H4          -7.5310    -2.1340     0.1920 ha         1 G1Y       0.116000
     29 H5          -6.1450    -0.6440     1.5980 ha         1 G1Y       0.123500
     30 H6          -2.2070     0.4940    -0.3640 hn         1 G1Y       0.316500
     31 H7          -2.0390     2.6570     1.4750 h1         1 G1Y       0.066700
     32 H8          -1.2700     1.2390     2.2210 h1         1 G1Y       0.066700
     33 H9          -1.0640     3.7220    -0.5360 ha         1 G1Y       0.120000
     34 H10          0.9890     4.1140    -1.8770 ha         1 G1Y       0.111000
     35 H11          2.9190     2.5930    -1.6890 ha         1 G1Y       0.106000
     36 H12          4.4270     0.9580    -1.8330 h4         1 G1Y       0.160000
     37 H13          6.1500    -1.7370    -1.8050 h1         1 G1Y       0.061700
     38 H14          6.7170    -3.3060    -0.0720 hc         1 G1Y       0.060200
     39 H15          4.6080    -3.2570     1.1250 hc         1 G1Y       0.071700
     40 H17          0.7500     0.2230     1.2200 ha         1 G1Y       0.131000
     41 H18          7.0360    -0.5000    -0.8760 h1         1 G1Y       0.061700
     42 H19          7.3560    -2.0170     0.9390 hc         1 G1Y       0.060200
     43 H20          5.3620    -2.1490     2.2780 hc         1 G1Y       0.071700
@<TRIPOS>BOND
     1     1     2 2   
     2     2     3 1   
     3     2     9 1   
     4     3     4 ar  
     5     3     8 ar  
     6     4     5 ar  
     7     4    25 1   
     8     5     6 ar  
     9     5    26 1   
    10     6     7 ar  
    11     6    27 1   
    12     7     8 ar  
    13     7    28 1   
    14     8    29 1   
    15     9    10 1   
    16     9    30 1   
    17    10    11 1   
    18    10    31 1   
    19    10    32 1   
    20    11    12 ar  
    21    11    24 ar  
    22    12    13 ar  
    23    12    33 1   
    24    13    14 ar  
    25    13    34 1   
    26    14    15 ar  
    27    14    35 1   
    28    15    16 1   
    29    15    24 ar  
    30    16    17 2   
    31    16    23 1   
    32    17    18 1   
    33    17    36 1   
    34    18    19 1   
    35    18    22 1   
    36    19    20 1   
    37    19    37 1   
    38    19    41 1   
    39    20    21 1   
    40    20    38 1   
    41    20    42 1   
    42    21    22 1   
    43    21    39 1   
    44    21    43 1   
    45    22    23 2   
    46    24    40 1   
@<TRIPOS>SUBSTRUCTURE
     1 G1Y         1 TEMP              0 ****  ****    0 ROOT
