@<TRIPOS>MOLECULE
G20
   46    46     1     0     0
SMALL
abcg2


@<TRIPOS>ATOM
      1 C1           3.3640    -0.0050    -2.1200 c          1 G20       0.725200
      2 O1A          3.5080    -0.0790    -3.3540 o          1 G20      -0.691500
      3 O1B          4.2450     0.1430    -1.2580 o          1 G20      -0.691500
      4 C2           1.9320    -0.1140    -1.6060 ce         1 G20       0.040900
      5 C3           0.8750    -0.2970    -2.3970 c2         1 G20      -0.420200
      6 C4          -0.5400    -0.3310    -1.8980 c6         1 G20       0.270700
      7 C5          -0.5920     0.1400    -0.4470 c6         1 G20       0.067700
      8 N5          -1.8360    -0.2470     0.1600 ns         1 G20      -0.495900
      9 C10         -2.5460     0.5300     1.0040 c          1 G20       0.599100
     10 O10         -2.1930     1.6540     1.3270 o          1 G20      -0.602100
     11 C11         -3.8050    -0.0990     1.5430 c3         1 G20      -0.180100
     12 C6           0.6190    -0.4450     0.3040 c6         1 G20       0.077300
     13 O6           1.8320    -0.0040    -0.2580 os         1 G20      -0.283100
     14 C7           0.6190     0.0540     1.7480 c          1 G20       0.614100
     15 O7           1.1340     1.1360     1.9900 o          1 G20      -0.558100
     16 N8           0.0030    -0.6770     2.6940 n          1 G20      -0.418800
     17 C81         -0.5220    -2.0200     2.5540 c3         1 G20       0.104300
     18 C9          -0.1340    -0.1070     4.0270 c3         1 G20       0.101000
     19 C91          1.0580    -0.3850     4.9340 c3         1 G20      -0.100400
     20 C92          0.8200     0.1420     6.3410 c3         1 G20      -0.085100
     21 NE          -1.4330     0.4750    -2.6980 nu         1 G20      -0.889400
     22 CZ          -1.9700    -0.0230    -3.8600 c2         1 G20       0.795100
     23 NH1         -1.8650    -1.2660    -4.1510 n2         1 G20      -0.893100
     24 NH2         -2.5740     0.9440    -4.6320 nv         1 G20      -1.071200
     25 H3           1.0360    -0.4050    -3.4600 ha         1 G20       0.220000
     26 H4          -0.9170    -1.3570    -1.9540 h1         1 G20       0.070700
     27 H5          -0.5150     1.2300    -0.4080 h1         1 G20       0.103700
     28 HN5         -2.1990    -1.1590    -0.0680 hn         1 G20       0.305500
     29 H111        -4.6330     0.6040     1.4550 hc         1 G20       0.051033
     30 H112        -4.0780    -1.0260     1.0420 hc         1 G20       0.051033
     31 H113        -3.6730    -0.3120     2.6050 hc         1 G20       0.051033
     32 H6           0.5780    -1.5360     0.2250 h1         1 G20       0.040700
     33 H811        -0.2370    -2.4850     1.6170 h1         1 G20       0.028700
     34 H812        -0.1360    -2.6500     3.3570 h1         1 G20       0.028700
     35 H813        -1.6110    -2.0250     2.6180 h1         1 G20       0.028700
     36 H91         -1.0390    -0.5300     4.4700 h1         1 G20       0.048700
     37 H92         -0.3010     0.9670     3.9410 h1         1 G20       0.048700
     38 H911         1.9520     0.0760     4.5070 hc         1 G20       0.052200
     39 H912         1.2480    -1.4610     4.9710 hc         1 G20       0.052200
     40 H921         1.6800    -0.0440     6.9840 hc         1 G20       0.026700
     41 H922         0.6380     1.2190     6.3370 hc         1 G20       0.026700
     42 H923        -0.0460    -0.3360     6.8020 hc         1 G20       0.026700
     43 HNE         -1.2080     1.4600    -2.7110 hn         1 G20       0.473000
     44 HN1         -2.3890    -1.4820    -4.9910 hn         1 G20       0.360400
     45 HN21        -3.1840     0.5980    -5.3560 hn         1 G20       0.445000
     46 HN22        -2.9750     1.7280    -4.1410 hn         1 G20       0.445000
@<TRIPOS>BOND
     1     1     2 1   
     2     1     3 1   
     3     1     4 1   
     4     4     5 2   
     5     4    13 1   
     6     5     6 1   
     7     5    25 1   
     8     6     7 1   
     9     6    21 1   
    10     6    26 1   
    11     7     8 1   
    12     7    12 1   
    13     7    27 1   
    14     8     9 1   
    15     8    28 1   
    16     9    10 2   
    17     9    11 1   
    18    11    29 1   
    19    11    30 1   
    20    11    31 1   
    21    12    13 1   
    22    12    14 1   
    23    12    32 1   
    24    14    15 2   
    25    14    16 1   
    26    16    17 1   
    27    16    18 1   
    28    17    33 1   
    29    17    34 1   
    30    17    35 1   
    31    18    19 1   
    32    18    36 1   
    33    18    37 1   
    34    19    20 1   
    35    19    38 1   
    36    19    39 1   
    37    20    40 1   
    38    20    41 1   
    39    20    42 1   
    40    21    22 1   
    41    21    43 1   
    42    22    23 2   
    43    22    24 1   
    44    23    44 1   
    45    24    45 1   
    46    24    46 1   
@<TRIPOS>SUBSTRUCTURE
     1 G20         1 TEMP              0 ****  ****    0 ROOT
