@<TRIPOS>MOLECULE
G20
   46    46     1     0     0
SMALL
No Charge or Current Charge


@<TRIPOS>ATOM
      1 C1           3.6160     0.6640    -2.4000 c          1 G20       0.725200
      2 O1A          3.7870     0.5760    -3.6110 o          1 G20      -0.691500
      3 O1B          4.5080     1.0230    -1.6380 o          1 G20      -0.691500
      4 C2           2.2390     0.3110    -1.8190 ce         1 G20       0.040900
      5 C3           1.1920    -0.1090    -2.5850 c2         1 G20      -0.420200
      6 C4          -0.1630    -0.4420    -2.0050 c6         1 G20       0.270700
      7 C5          -0.3320     0.2380    -0.6150 c6         1 G20       0.067700
      8 N5          -1.6400    -0.0810    -0.0040 ns         1 G20      -0.495900
      9 C10         -2.3380     0.7210     0.8650 c          1 G20       0.599100
     10 O10         -1.9050     1.7920     1.2630 o          1 G20      -0.602100
     11 C11         -3.6900     0.1690     1.2950 c3         1 G20      -0.180100
     12 C6           0.9390    -0.1450     0.2100 c6         1 G20       0.077300
     13 O6           2.1150     0.4210    -0.4340 os         1 G20      -0.283100
     14 C7           0.8950     0.1640     1.7430 c          1 G20       0.614100
     15 O7           1.7250     0.9150     2.2500 o          1 G20      -0.558100
     16 N8          -0.0290    -0.5190     2.5790 n          1 G20      -0.418800
     17 C81         -0.4210    -1.9210     2.2960 c3         1 G20       0.104300
     18 C9          -0.2860    -0.0330     3.9550 c3         1 G20       0.101000
     19 C91          0.5600    -0.7430     5.0350 c3         1 G20      -0.100400
     20 C92          0.3030    -0.1940     6.4510 c3         1 G20      -0.085100
     21 NE          -1.1440     0.0490    -2.9690 nu         1 G20      -0.889400
     22 CZ          -2.3570    -0.4460    -3.1490 c2         1 G20       0.795100
     23 NH1         -2.8190    -1.4580    -2.5850 n2         1 G20      -0.893100
     24 NH2         -2.9130     0.2680    -4.0940 nv         1 G20      -1.071200
     25 H3           1.3100    -0.2280    -3.6620 ha         1 G20       0.220000
     26 H4          -0.2350    -1.5360    -1.8910 h1         1 G20       0.070700
     27 H5          -0.3040     1.3270    -0.7710 h1         1 G20       0.103700
     28 HN5         -2.1310    -0.8970    -0.3540 hn         1 G20       0.305500
     29 H111        -4.2210     0.8370     1.9830 hc         1 G20       0.051033
     30 H112        -4.2860    -0.0540     0.4030 hc         1 G20       0.051033
     31 H113        -3.5450    -0.8260     1.7310 hc         1 G20       0.051033
     32 H6           1.0510    -1.2360     0.1510 h1         1 G20       0.040700
     33 H811        -0.6750    -2.0670     1.2410 h1         1 G20       0.028700
     34 H812         0.4120    -2.5880     2.5520 h1         1 G20       0.028700
     35 H813        -1.2940    -2.1940     2.9020 h1         1 G20       0.028700
     36 H91         -1.3500    -0.1820     4.1810 h1         1 G20       0.048700
     37 H92         -0.1000     1.0480     4.0000 h1         1 G20       0.048700
     38 H911         1.6230    -0.6270     4.7940 hc         1 G20       0.052200
     39 H912         0.3430    -1.8180     5.0260 hc         1 G20       0.052200
     40 H921         0.9230    -0.7240     7.1840 hc         1 G20       0.026700
     41 H922         0.5470     0.8740     6.5030 hc         1 G20       0.026700
     42 H923        -0.7490    -0.3240     6.7330 hc         1 G20       0.026700
     43 HNE         -0.7970     0.5240    -3.7870 hn         1 G20       0.473000
     44 HN1         -3.7500    -1.6370    -2.9710 hn         1 G20       0.360400
     45 HN21        -3.8900     0.0500    -4.2250 hn         1 G20       0.445000
     46 HN22        -2.7330     1.2540    -3.9710 hn         1 G20       0.445000
@<TRIPOS>BOND
     1     1     2 1   
     2     1     3 1   
     3     1     4 1   
     4     4     5 2   
     5     4    13 1   
     6     5     6 1   
     7     5    25 1   
     8     6     7 1   
     9     6    21 1   
    10     6    26 1   
    11     7     8 1   
    12     7    12 1   
    13     7    27 1   
    14     8     9 1   
    15     8    28 1   
    16     9    10 2   
    17     9    11 1   
    18    11    29 1   
    19    11    30 1   
    20    11    31 1   
    21    12    13 1   
    22    12    14 1   
    23    12    32 1   
    24    14    15 2   
    25    14    16 1   
    26    16    17 1   
    27    16    18 1   
    28    17    33 1   
    29    17    34 1   
    30    17    35 1   
    31    18    19 1   
    32    18    36 1   
    33    18    37 1   
    34    19    20 1   
    35    19    38 1   
    36    19    39 1   
    37    20    40 1   
    38    20    41 1   
    39    20    42 1   
    40    21    22 1   
    41    21    43 1   
    42    22    23 2   
    43    22    24 1   
    44    23    44 1   
    45    24    45 1   
    46    24    46 1   
@<TRIPOS>SUBSTRUCTURE
     1 G20         1 TEMP              0 ****  ****    0 ROOT
