@<TRIPOS>MOLECULE
G21
   56    57     1     0     0
SMALL
No Charge or Current Charge


@<TRIPOS>ATOM
      1 C1          23.2720    19.9720    65.3990 c2         1 G21       0.716400
      2 O1A         23.7240    20.9670    65.9530 o          1 G21      -0.739300
      3 O1B         21.9500    19.9240    65.3600 oh         1 G21      -0.691100
      4 C2          23.9680    18.9520    64.8540 c2         1 G21      -0.439100
      5 C3          23.3080    17.7240    64.1870 c6         1 G21       0.043800
      6 C4          24.1280    17.1220    63.0110 c6         1 G21       0.134500
      7 C5          25.6230    16.9910    63.4140 c6         1 G21       0.081700
      8 N5          26.4040    16.2930    62.3680 ns         1 G21      -0.507900
      9 C10         27.3970    15.3690    62.5970 c          1 G21       0.597100
     10 O10         27.7160    15.0120    63.7210 o          1 G21      -0.600100
     11 C11         28.0620    14.8250    61.3400 c3         1 G21      -0.184100
     12 C6          26.1280    18.4210    63.7910 c6         1 G21       0.074300
     13 O6          25.3520    18.9380    64.9080 os         1 G21      -0.277100
     14 C7          27.6730    18.5510    64.0450 c          1 G21       0.614100
     15 O7          28.0900    18.8620    65.1580 o          1 G21      -0.589100
     16 N8          28.5970    18.4600    62.9640 n          1 G21      -0.420800
     17 C81         30.0570    18.3770    63.2340 c3         1 G21       0.107000
     18 C82         30.5720    16.9310    63.3390 c3         1 G21      -0.065100
     19 CG          32.0750    16.8800    63.5680 ca         1 G21      -0.063300
     20 CD1         32.5960    16.9110    64.8770 ca         1 G21      -0.107000
     21 CD2         32.9580    16.8110    62.4730 ca         1 G21      -0.107000
     22 CE1         33.9850    16.8700    65.0880 ca         1 G21      -0.115500
     23 CE2         34.3470    16.7710    62.6850 ca         1 G21      -0.115500
     24 CZ          34.8610    16.8000    63.9920 ca         1 G21      -0.124000
     25 C9          28.1990    18.8000    61.5720 c3         1 G21       0.123000
     26 C91         28.1410    20.3170    61.2680 c3         1 G21      -0.106400
     27 C92         29.4840    21.0710    61.3560 c3         1 G21      -0.080100
     28 NE          23.5540    15.8220    62.5780 n8         1 G21      -0.991200
     29 H2          21.7850    19.0740    64.9160 ho         1 G21       0.428000
     30 H31         23.1780    16.9540    64.9600 hc         1 G21       0.018200
     31 H32         22.2990    17.9570    63.8200 hc         1 G21       0.018200
     32 H4          24.0660    17.7940    62.1430 h1         1 G21       0.002700
     33 H5          25.6670    16.3790    64.3270 h1         1 G21       0.114700
     34 HN5         26.2080    16.5090    61.3990 hn         1 G21       0.290500
     35 H111        28.8600    14.1060    61.5600 hc         1 G21       0.049033
     36 H112        27.2940    14.3880    60.6910 hc         1 G21       0.049033
     37 H113        28.4260    15.6630    60.7350 hc         1 G21       0.049033
     38 H6          25.9190    19.0820    62.9390 h1         1 G21       0.028700
     39 H811        30.6060    18.8630    62.4190 h1         1 G21       0.053700
     40 H812        30.3090    18.9220    64.1520 h1         1 G21       0.053700
     41 H821        30.0480    16.4250    64.1590 hc         1 G21       0.059200
     42 H822        30.3120    16.3910    62.4220 hc         1 G21       0.059200
     43 HD1         31.9230    16.9680    65.7300 ha         1 G21       0.116500
     44 HD2         32.5690    16.7910    61.4580 ha         1 G21       0.116500
     45 HE1         34.3810    16.8950    66.1010 ha         1 G21       0.104000
     46 HE2         35.0250    16.7180    61.8350 ha         1 G21       0.104000
     47 HZ          35.9360    16.7690    64.1550 ha         1 G21       0.101000
     48 H91         28.9100    18.3290    60.8820 h1         1 G21       0.028200
     49 H92         27.2180    18.3780    61.3410 h1         1 G21       0.028200
     50 H911        27.7430    20.4430    60.2540 hc         1 G21       0.062700
     51 H912        27.4190    20.7930    61.9430 hc         1 G21       0.062700
     52 H921        29.3600    22.1060    61.0170 hc         1 G21       0.027700
     53 H922        29.8520    21.1000    62.3890 hc         1 G21       0.027700
     54 H923        30.2420    20.5930    60.7240 hc         1 G21       0.027700
     55 HNE1        24.2290    15.3620    61.9590 hn         1 G21       0.376000
     56 HNE2        22.7440    16.0020    61.9740 hn         1 G21       0.376000
@<TRIPOS>BOND
     1     1     2 1   
     2     1     3 1   
     3     1     4 2   
     4     3    29 1   
     5     4     5 1   
     6     4    13 1   
     7     5     6 1   
     8     5    30 1   
     9     5    31 1   
    10     6     7 1   
    11     6    28 1   
    12     6    32 1   
    13     7     8 1   
    14     7    12 1   
    15     7    33 1   
    16     8     9 1   
    17     8    34 1   
    18     9    10 2   
    19     9    11 1   
    20    11    35 1   
    21    11    36 1   
    22    11    37 1   
    23    12    13 1   
    24    12    14 1   
    25    12    38 1   
    26    14    15 2   
    27    14    16 1   
    28    16    17 1   
    29    16    25 1   
    30    17    18 1   
    31    17    39 1   
    32    17    40 1   
    33    18    19 1   
    34    18    41 1   
    35    18    42 1   
    36    19    20 ar  
    37    19    21 ar  
    38    20    22 ar  
    39    20    43 1   
    40    21    23 ar  
    41    21    44 1   
    42    22    24 ar  
    43    22    45 1   
    44    23    24 ar  
    45    23    46 1   
    46    24    47 1   
    47    25    26 1   
    48    25    48 1   
    49    25    49 1   
    50    26    27 1   
    51    26    50 1   
    52    26    51 1   
    53    27    52 1   
    54    27    53 1   
    55    27    54 1   
    56    28    55 1   
    57    28    56 1   
@<TRIPOS>SUBSTRUCTURE
     1 G21         1 TEMP              0 ****  ****    0 ROOT
