@<TRIPOS>MOLECULE
G21
   56    57     1     0     0
SMALL
abcg2


@<TRIPOS>ATOM
      1 C1          23.8330    20.3000    63.8980 c2         1 G21       0.716400
      2 O1A         24.5170    21.3040    63.6150 o          1 G21      -0.739300
      3 O1B         22.4760    20.4450    63.6450 oh         1 G21      -0.691100
      4 C2          24.2530    19.1130    64.4700 c2         1 G21      -0.439100
      5 C3          23.5680    17.7840    64.4750 c6         1 G21       0.043800
      6 C4          24.1740    16.8540    63.4150 c6         1 G21       0.134500
      7 C5          25.6930    16.8260    63.5780 c6         1 G21       0.081700
      8 N5          26.3090    16.1060    62.4840 ns         1 G21      -0.507900
      9 C10         27.2320    15.1310    62.6060 c          1 G21       0.597100
     10 O10         27.6260    14.7040    63.6820 o          1 G21      -0.600100
     11 C11         27.7790    14.6110    61.2990 c3         1 G21      -0.184100
     12 C6          26.2510    18.2600    63.6540 c6         1 G21       0.074300
     13 O6          25.6340    18.9770    64.6920 os         1 G21      -0.277100
     14 C7          27.7410    18.2140    63.9840 c          1 G21       0.614100
     15 O7          28.0820    17.8670    65.1070 o          1 G21      -0.589100
     16 N8          28.6380    18.5520    63.0330 n          1 G21      -0.420800
     17 C81         30.0540    18.4300    63.3430 c3         1 G21       0.107000
     18 C82         30.5960    17.0310    63.0320 c3         1 G21      -0.065100
     19 CG          32.0650    16.9420    63.3310 ca         1 G21      -0.063300
     20 CD1         32.5140    16.5240    64.5820 ca         1 G21      -0.107000
     21 CD2         33.0100    17.3170    62.3780 ca         1 G21      -0.107000
     22 CE1         33.8700    16.4790    64.8740 ca         1 G21      -0.115500
     23 CE2         34.3670    17.2750    62.6650 ca         1 G21      -0.115500
     24 CZ          34.8020    16.8550    63.9160 ca         1 G21      -0.124000
     25 C9          28.2940    18.9860    61.6840 c3         1 G21       0.123000
     26 C91         27.9240    20.4620    61.5820 c3         1 G21      -0.106400
     27 C92         29.0260    21.4080    62.0390 c3         1 G21      -0.080100
     28 NE          23.6500    15.5040    63.5450 n8         1 G21      -0.991200
     29 H2          21.9850    19.6930    63.9880 ho         1 G21       0.428000
     30 H31         23.6610    17.2800    65.4480 hc         1 G21       0.018200
     31 H32         22.4910    17.8520    64.2900 hc         1 G21       0.018200
     32 H4          23.9570    17.3060    62.4310 h1         1 G21       0.002700
     33 H5          25.9320    16.3030    64.5060 h1         1 G21       0.114700
     34 HN5         26.0440    16.3870    61.5520 hn         1 G21       0.290500
     35 H111        27.8520    13.5260    61.3340 hc         1 G21       0.049033
     36 H112        27.1850    14.8960    60.4320 hc         1 G21       0.049033
     37 H113        28.7890    15.0020    61.1590 hc         1 G21       0.049033
     38 H6          26.0450    18.7470    62.6940 h1         1 G21       0.028700
     39 H811        30.5960    19.1700    62.7540 h1         1 G21       0.053700
     40 H812        30.2240    18.6720    64.3910 h1         1 G21       0.053700
     41 H821        30.0470    16.2920    63.6170 hc         1 G21       0.059200
     42 H822        30.4150    16.8060    61.9770 hc         1 G21       0.059200
     43 HD1         31.7910    16.2270    65.3340 ha         1 G21       0.116500
     44 HD2         32.6780    17.6410    61.3980 ha         1 G21       0.116500
     45 HE1         34.2000    16.1460    65.8510 ha         1 G21       0.104000
     46 HE2         35.0870    17.5660    61.9100 ha         1 G21       0.104000
     47 HZ          35.8610    16.8170    64.1410 ha         1 G21       0.101000
     48 H91         29.1640    18.7890    61.0550 h1         1 G21       0.028200
     49 H92         27.4970    18.3670    61.2740 h1         1 G21       0.028200
     50 H911        27.6790    20.6630    60.5360 hc         1 G21       0.062700
     51 H912        27.0110    20.6620    62.1500 hc         1 G21       0.062700
     52 H921        28.7250    22.4470    61.8980 hc         1 G21       0.027700
     53 H922        29.2580    21.2790    63.0960 hc         1 G21       0.027700
     54 H923        29.9460    21.2510    61.4730 hc         1 G21       0.027700
     55 HNE1        24.0080    14.9230    62.7960 hn         1 G21       0.376000
     56 HNE2        22.6450    15.5260    63.4130 hn         1 G21       0.376000
@<TRIPOS>BOND
     1     1     2 1   
     2     1     3 1   
     3     1     4 2   
     4     3    29 1   
     5     4     5 1   
     6     4    13 1   
     7     5     6 1   
     8     5    30 1   
     9     5    31 1   
    10     6     7 1   
    11     6    28 1   
    12     6    32 1   
    13     7     8 1   
    14     7    12 1   
    15     7    33 1   
    16     8     9 1   
    17     8    34 1   
    18     9    10 2   
    19     9    11 1   
    20    11    35 1   
    21    11    36 1   
    22    11    37 1   
    23    12    13 1   
    24    12    14 1   
    25    12    38 1   
    26    14    15 2   
    27    14    16 1   
    28    16    17 1   
    29    16    25 1   
    30    17    18 1   
    31    17    39 1   
    32    17    40 1   
    33    18    19 1   
    34    18    41 1   
    35    18    42 1   
    36    19    20 ar  
    37    19    21 ar  
    38    20    22 ar  
    39    20    43 1   
    40    21    23 ar  
    41    21    44 1   
    42    22    24 ar  
    43    22    45 1   
    44    23    24 ar  
    45    23    46 1   
    46    24    47 1   
    47    25    26 1   
    48    25    48 1   
    49    25    49 1   
    50    26    27 1   
    51    26    50 1   
    52    26    51 1   
    53    27    52 1   
    54    27    53 1   
    55    27    54 1   
    56    28    55 1   
    57    28    56 1   
@<TRIPOS>SUBSTRUCTURE
     1 G21         1 TEMP              0 ****  ****    0 ROOT
