@<TRIPOS>MOLECULE
G23
   57    59     1     0     0
SMALL
No Charge or Current Charge


@<TRIPOS>ATOM
      1 C1          -2.4670     0.3790    -0.3020 c5         1 G23       0.025500
      2 C2          -0.2580    -0.5760    -0.2320 c5         1 G23       0.331500
      3 C3           1.2640    -0.3930     0.0050 c3         1 G23       0.037700
      4 C4           1.9730     0.0370    -1.3020 c          1 G23       0.584100
      5 C7          -3.1010    -0.1440    -1.6640 c          1 G23       0.705000
      6 C8          -2.7050    -0.6430     0.8780 c5         1 G23       0.154000
      7 C9           2.6870    -0.7630    -3.5790 c3         1 G23       0.159300
      8 C11          2.4190     1.4360     3.2200 c3         1 G23      -0.112100
      9 C12          2.3420     0.5660     5.6160 ca         1 G23      -0.092500
     10 C13          1.6570     0.9150     4.4350 ca         1 G23      -0.070300
     11 C14          0.2560     0.7750     4.3820 ca         1 G23      -0.092500
     12 C15         -0.4530     0.2910     5.4950 ca         1 G23      -0.115500
     13 C16          0.2350    -0.0550     6.6700 ca         1 G23      -0.116000
     14 C17          1.6320     0.0830     6.7300 ca         1 G23      -0.115500
     15 C18          0.5640     1.5250    -5.8090 ca         1 G23      -0.108000
     16 C19         -0.1810     0.5880    -6.5450 ca         1 G23      -0.120000
     17 C20          0.0020    -0.7870    -6.3190 ca         1 G23      -0.108000
     18 C21          0.9300    -1.2250    -5.3580 ca         1 G23      -0.099000
     19 C22          1.6810    -0.2900    -4.6180 ca         1 G23      -0.111300
     20 C23          1.4920     1.0870    -4.8490 ca         1 G23      -0.099000
     21 N1          -0.9860     0.7110    -0.2940 n7         1 G23      -0.881400
     22 N2           1.5380     0.5670     1.1020 ns         1 G23      -0.453900
     23 N3           2.0630    -0.9440    -2.2690 ns         1 G23      -0.508900
     24 O1           2.4440     1.1550    -1.4780 o          1 G23      -0.593100
     25 O2           3.2270    -0.5690     2.1220 o          1 G23      -0.627100
     26 O3          -2.4270    -0.8020    -2.4460 o          1 G23      -0.723000
     27 O4          -4.2220     0.2440    -1.9680 o          1 G23      -0.723000
     28 S1          -1.0330    -1.3770     1.2430 ss         1 G23      -0.498000
     29 H1          -3.0250     1.3010    -0.0920 h1         1 G23       0.069700
     30 H2          -0.4360    -1.2040    -1.1150 h2         1 G23       0.082700
     31 H3           1.6750    -1.3730     0.2750 h1         1 G23       0.083700
     32 H51         -3.7820    -2.4700     1.4630 hc         1 G23       0.035200
     33 H52         -4.6900    -1.4400     0.3500 hc         1 G23       0.035200
     34 H53         -3.3440    -2.4330    -0.2430 hc         1 G23       0.035200
     35 H61         -3.2260    -0.6000     3.0170 hc         1 G23       0.035200
     36 H62         -2.4960     0.9000     2.4280 hc         1 G23       0.035200
     37 H63         -4.1750     0.5190     2.0250 hc         1 G23       0.035200
     38 H91          3.5130    -0.0440    -3.5000 h1         1 G23       0.046700
     39 H92          3.1170    -1.7230    -3.8950 h1         1 G23       0.046700
     40 H111         3.4500     1.6810     3.5000 hc         1 G23       0.064200
     41 H112         1.9170     2.3400     2.8550 hc         1 G23       0.064200
     42 H14         -0.2850     1.0370     3.4760 ha         1 G23       0.118000
     43 H15         -1.5340     0.1830     5.4450 ha         1 G23       0.106000
     44 H16         -0.3130    -0.4300     7.5320 ha         1 G23       0.102000
     45 H17          2.1660    -0.1860     7.6390 ha         1 G23       0.106000
     46 H19         -0.9000     0.9270    -7.2890 ha         1 G23       0.103000
     47 H20         -0.5760    -1.5130    -6.8870 ha         1 G23       0.120500
     48 H21          1.0640    -2.2910    -5.1880 ha         1 G23       0.120500
     49 H23          2.0640     1.8190    -4.2820 ha         1 G23       0.120500
     50 HN1         -0.7390     1.1980    -1.1650 hn         1 G23       0.437000
     51 HN2          0.9070     1.3550     1.1890 hn         1 G23       0.344500
     52 HN3          1.6710    -1.8520    -2.0510 hn         1 G23       0.317500
     53 C5          -3.6870    -1.8110     0.5910 c3         1 G23      -0.069100
     54 C6          -3.1780     0.0840     2.1620 c3         1 G23      -0.069100
     55 C10          2.4520     0.3790     2.1100 c          1 G23       0.610100
     56 H12          3.4230     0.6660     5.6730 ha         1 G23       0.118000
     57 H18          0.4220     2.5900    -5.9830 ha         1 G23       0.120500
@<TRIPOS>BOND
     1     1     5 1   
     2     1     6 1   
     3     1    21 1   
     4     1    29 1   
     5     2     3 1   
     6     2    21 1   
     7     2    28 1   
     8     2    30 1   
     9     3     4 1   
    10     3    22 1   
    11     3    31 1   
    12     4    23 1   
    13     4    24 2   
    14     5    26 1   
    15     5    27 1   
    16     6    28 1   
    17     6    53 1   
    18     6    54 1   
    19     7    19 1   
    20     7    23 1   
    21     7    38 1   
    22     7    39 1   
    23     8    10 1   
    24     8    40 1   
    25     8    41 1   
    26     8    55 1   
    27     9    10 ar  
    28     9    14 ar  
    29     9    56 1   
    30    10    11 ar  
    31    11    12 ar  
    32    11    42 1   
    33    12    13 ar  
    34    12    43 1   
    35    13    14 ar  
    36    13    44 1   
    37    14    45 1   
    38    15    16 ar  
    39    15    20 ar  
    40    15    57 1   
    41    16    17 ar  
    42    16    46 1   
    43    17    18 ar  
    44    17    47 1   
    45    18    19 ar  
    46    18    48 1   
    47    19    20 ar  
    48    20    49 1   
    49    21    50 1   
    50    22    51 1   
    51    22    55 1   
    52    23    52 1   
    53    25    55 2   
    54    32    53 1   
    55    33    53 1   
    56    34    53 1   
    57    35    54 1   
    58    36    54 1   
    59    37    54 1   
@<TRIPOS>SUBSTRUCTURE
     1 G23         1 TEMP              0 ****  ****    0 ROOT
