@<TRIPOS>MOLECULE
G23
   57    59     1     0     0
SMALL
abcg2


@<TRIPOS>ATOM
      1 C1          -2.5090    -0.1580    -0.8340 c5         1 G23       0.025500
      2 C2          -0.3160    -1.0950    -0.5080 c5         1 G23       0.331500
      3 C3           1.0750    -0.6940     0.0150 c3         1 G23       0.037700
      4 C4           1.9010    -0.1470    -1.1560 c          1 G23       0.584100
      5 C7          -3.0870    -0.9800    -2.0130 c          1 G23       0.705000
      6 C8          -2.7600    -0.7790     0.5580 c5         1 G23       0.154000
      7 C9           2.8640    -0.7270    -3.3160 c3         1 G23       0.159300
      8 C11          1.5590     1.6470     2.9350 c3         1 G23      -0.112100
      9 C12          2.3830     0.8540     5.1800 ca         1 G23      -0.092500
     10 C13          1.3250     1.0500     4.2970 ca         1 G23      -0.070300
     11 C14          0.0490     0.6390     4.6760 ca         1 G23      -0.092500
     12 C15         -0.1670     0.0500     5.9140 ca         1 G23      -0.115500
     13 C16          0.8950    -0.1400     6.7900 ca         1 G23      -0.116000
     14 C17          2.1710     0.2660     6.4200 ca         1 G23      -0.115500
     15 C18          1.3420     1.5970    -5.9090 ca         1 G23      -0.108000
     16 C19          0.0080     1.2100    -5.8960 ca         1 G23      -0.120000
     17 C20         -0.4010     0.1970    -5.0390 ca         1 G23      -0.108000
     18 C21          0.5190    -0.4290    -4.2080 ca         1 G23      -0.099000
     19 C22          1.8560    -0.0420    -4.2100 ca         1 G23      -0.111300
     20 C23          2.2560     0.9770    -5.0670 ca         1 G23      -0.099000
     21 N1          -1.0750     0.0760    -0.8890 n7         1 G23      -0.881400
     22 N2           0.9430     0.2870     1.0410 ns         1 G23      -0.453900
     23 N3           2.3270    -1.0800    -2.0230 ns         1 G23      -0.508900
     24 O1           2.1050     1.0440    -1.3060 o          1 G23      -0.593100
     25 O2           2.9340    -0.0960     2.0270 o          1 G23      -0.627100
     26 O3          -2.3070    -1.7090    -2.6560 o          1 G23      -0.723000
     27 O4          -4.3050    -0.8210    -2.2270 o          1 G23      -0.723000
     28 S1          -1.3180    -1.9040     0.7810 ss         1 G23      -0.498000
     29 H1          -3.0090     0.8160    -0.8500 h1         1 G23       0.069700
     30 H2          -0.1900    -1.8180    -1.3180 h2         1 G23       0.082700
     31 H3           1.5680    -1.5880     0.4080 h1         1 G23       0.083700
     32 H51         -4.1240    -1.9920     1.7020 hc         1 G23       0.035200
     33 H52         -4.9090    -0.9700     0.5010 hc         1 G23       0.035200
     34 H53         -4.0680    -2.4390    -0.0020 hc         1 G23       0.035200
     35 H61         -2.7560    -0.1400     2.6330 hc         1 G23       0.035200
     36 H62         -1.8810     0.9510     1.5590 hc         1 G23       0.035200
     37 H63         -3.6420     0.9290     1.5440 hc         1 G23       0.035200
     38 H91          3.7470    -0.0940    -3.2010 h1         1 G23       0.046700
     39 H92          3.2040    -1.6530    -3.7810 h1         1 G23       0.046700
     40 H111         2.4020     2.3390     2.9630 hc         1 G23       0.064200
     41 H112         0.6850     2.2140     2.6120 hc         1 G23       0.064200
     42 H14         -0.7850     0.7830     4.0000 ha         1 G23       0.118000
     43 H15         -1.1650    -0.2600     6.1970 ha         1 G23       0.106000
     44 H16          0.7270    -0.5980     7.7560 ha         1 G23       0.102000
     45 H17          3.0030     0.1240     7.0970 ha         1 G23       0.106000
     46 H19         -0.7060     1.6980    -6.5470 ha         1 G23       0.103000
     47 H20         -1.4370    -0.1150    -5.0080 ha         1 G23       0.120500
     48 H21          0.1730    -1.2170    -3.5510 ha         1 G23       0.120500
     49 H23          3.2920     1.2970    -5.0720 ha         1 G23       0.120500
     50 HN1         -0.8060     0.3740    -1.8210 hn         1 G23       0.437000
     51 HN2          0.1560     0.9120     0.9430 hn         1 G23       0.344500
     52 HN3          2.1270    -2.0490    -1.8390 hn         1 G23       0.317500
     53 C5          -4.0370    -1.5980     0.6880 c3         1 G23      -0.069100
     54 C6          -2.7520     0.3020     1.6360 c3         1 G23      -0.069100
     55 C10          1.8930     0.5400     1.9500 c          1 G23       0.610100
     56 H12          3.3800     1.1680     4.8970 ha         1 G23       0.118000
     57 H18          1.6710     2.3920    -6.5670 ha         1 G23       0.120500
@<TRIPOS>BOND
     1     1     5 1   
     2     1     6 1   
     3     1    21 1   
     4     1    29 1   
     5     2     3 1   
     6     2    21 1   
     7     2    28 1   
     8     2    30 1   
     9     3     4 1   
    10     3    22 1   
    11     3    31 1   
    12     4    23 1   
    13     4    24 2   
    14     5    26 1   
    15     5    27 1   
    16     6    28 1   
    17     6    53 1   
    18     6    54 1   
    19     7    19 1   
    20     7    23 1   
    21     7    38 1   
    22     7    39 1   
    23     8    10 1   
    24     8    40 1   
    25     8    41 1   
    26     8    55 1   
    27     9    10 ar  
    28     9    14 ar  
    29     9    56 1   
    30    10    11 ar  
    31    11    12 ar  
    32    11    42 1   
    33    12    13 ar  
    34    12    43 1   
    35    13    14 ar  
    36    13    44 1   
    37    14    45 1   
    38    15    16 ar  
    39    15    20 ar  
    40    15    57 1   
    41    16    17 ar  
    42    16    46 1   
    43    17    18 ar  
    44    17    47 1   
    45    18    19 ar  
    46    18    48 1   
    47    19    20 ar  
    48    20    49 1   
    49    21    50 1   
    50    22    51 1   
    51    22    55 1   
    52    23    52 1   
    53    25    55 2   
    54    32    53 1   
    55    33    53 1   
    56    34    53 1   
    57    35    54 1   
    58    36    54 1   
    59    37    54 1   
@<TRIPOS>SUBSTRUCTURE
     1 G23         1 TEMP              0 ****  ****    0 ROOT
