@<TRIPOS>MOLECULE
G24
   51    53     1     0     0
SMALL
abcg2


@<TRIPOS>ATOM
      1 CAF         -2.4630    -0.1580    -5.7230 ca         1 G24      -0.107500
      2 CAB         -3.8170     0.1540    -5.7600 ca         1 G24      -0.109500
      3 CAC         -4.5870     0.0380    -4.6130 ca         1 G24      -0.111000
      4 CAD         -3.9960    -0.3910    -3.4290 ca         1 G24      -0.109500
      5 CAH         -2.6450    -0.6980    -3.3930 ca         1 G24      -0.107500
      6 CAG         -1.8610    -0.5880    -4.5430 ca         1 G24      -0.098300
      7 CAQ         -0.3870    -0.9210    -4.5040 c3         1 G24       0.016200
      8 CAP          0.3460    -0.2430    -3.3770 ca         1 G24      -0.171300
      9 CAO          1.0010    -0.9880    -2.4040 ca         1 G24      -0.082000
     10 CBA          0.3690     1.1490    -3.2690 ca         1 G24       0.135100
     11 OBC         -0.2580     1.9570    -4.1660 oh         1 G24      -0.555100
     12 CAZ          1.0630     1.7550    -2.2330 ca         1 G24      -0.142000
     13 CAY          1.7150     0.9870    -1.2810 ca         1 G24      -0.063000
     14 CAN          1.6880    -0.4040    -1.3430 ca         1 G24      -0.094300
     15 CAM          2.3660    -1.2570    -0.2900 c3         1 G24       0.034200
     16 CAL          2.0650    -0.8180     1.1220 ca         1 G24      -0.156300
     17 CAX          3.0140    -0.1160     1.8790 ca         1 G24      -0.035300
     18 CBB          4.3790     0.2000     1.3260 c3         1 G24      -0.043800
     19 CAW          2.7000     0.3100     3.1600 ca         1 G24      -0.195000
     20 CAK          0.8140    -1.0880     1.6870 ca         1 G24      -0.035300
     21 CAE         -0.2350    -1.8550     0.9320 c3         1 G24      -0.043800
     22 CAJ          0.5150    -0.6560     2.9770 ca         1 G24      -0.195000
     23 CAV          1.4530     0.0490     3.7260 ca         1 G24       0.183100
     24 OAU          1.2530     0.5050     4.9680 os         1 G24      -0.294100
     25 CAT         -0.0170     0.2920     5.5740 c3         1 G24      -0.005400
     26 CAS         -0.0680     0.8780     7.0030 c          1 G24       0.737000
     27 OAR         -1.1640     0.6790     7.5530 o          1 G24      -0.709000
     28 OAI          0.9510     1.4310     7.4320 o          1 G24      -0.709000
     29 HAF         -1.8670    -0.0660    -6.6240 ha         1 G24       0.118500
     30 HAB         -4.2660     0.4900    -6.6850 ha         1 G24       0.113000
     31 HAC         -5.6400     0.2810    -4.6370 ha         1 G24       0.110000
     32 HAD         -4.5910    -0.4820    -2.5300 ha         1 G24       0.113000
     33 HAH         -2.1950    -1.0250    -2.4630 ha         1 G24       0.118500
     34 HAQ1         0.0670    -0.6550    -5.4640 hc         1 G24       0.053700
     35 HAQ2        -0.2630    -2.0020    -4.4050 hc         1 G24       0.053700
     36 HAO          0.9640    -2.0720    -2.4760 ha         1 G24       0.103000
     37 HBC         -0.9740     1.4820    -4.6110 ho         1 G24       0.469000
     38 HAZ          1.0750     2.8350    -2.1640 ha         1 G24       0.125000
     39 HAY          2.2240     1.4800    -0.4640 ha         1 G24       0.129000
     40 HAM1         3.4450    -1.2500    -0.4640 hc         1 G24       0.041700
     41 HAM2         2.0630    -2.2980    -0.4320 hc         1 G24       0.041700
     42 HBB1         4.9260    -0.7040     1.0380 hc         1 G24       0.032700
     43 HBB2         4.3250     0.8290     0.4390 hc         1 G24       0.032700
     44 HBB3         4.9820     0.7240     2.0620 hc         1 G24       0.032700
     45 HAW          3.4320     0.8570     3.7440 ha         1 G24       0.124000
     46 HAE1        -0.5470    -1.3350     0.0250 hc         1 G24       0.032700
     47 HAE2         0.1250    -2.8390     0.6240 hc         1 G24       0.032700
     48 HAE3        -1.1230    -2.0090     1.5430 hc         1 G24       0.032700
     49 HAJ         -0.4610    -0.8820     3.3840 ha         1 G24       0.124000
     50 HAT1        -0.8080     0.7470     4.9650 h1         1 G24       0.016700
     51 HAT2        -0.2310    -0.7830     5.6250 h1         1 G24       0.016700
@<TRIPOS>BOND
     1     1     2 ar  
     2     1     6 ar  
     3     1    29 1   
     4     2     3 ar  
     5     2    30 1   
     6     3     4 ar  
     7     3    31 1   
     8     4     5 ar  
     9     4    32 1   
    10     5     6 ar  
    11     5    33 1   
    12     6     7 1   
    13     7     8 1   
    14     7    34 1   
    15     7    35 1   
    16     8     9 ar  
    17     8    10 ar  
    18     9    14 ar  
    19     9    36 1   
    20    10    11 1   
    21    10    12 ar  
    22    11    37 1   
    23    12    13 ar  
    24    12    38 1   
    25    13    14 ar  
    26    13    39 1   
    27    14    15 1   
    28    15    16 1   
    29    15    40 1   
    30    15    41 1   
    31    16    17 ar  
    32    16    20 ar  
    33    17    18 1   
    34    17    19 ar  
    35    18    42 1   
    36    18    43 1   
    37    18    44 1   
    38    19    23 ar  
    39    19    45 1   
    40    20    21 1   
    41    20    22 ar  
    42    21    46 1   
    43    21    47 1   
    44    21    48 1   
    45    22    23 ar  
    46    22    49 1   
    47    23    24 1   
    48    24    25 1   
    49    25    26 1   
    50    25    50 1   
    51    25    51 1   
    52    26    27 1   
    53    26    28 1   
@<TRIPOS>SUBSTRUCTURE
     1 G24         1 TEMP              0 ****  ****    0 ROOT
