@<TRIPOS>MOLECULE
G24
   51    53     1     0     0
SMALL
No Charge or Current Charge


@<TRIPOS>ATOM
      1 CAF         -2.4900    -0.1440    -5.7790 ca         1 G24      -0.107500
      2 CAB         -3.8620     0.1620    -5.8010 ca         1 G24      -0.109500
      3 CAC         -4.6380     0.0010    -4.6410 ca         1 G24      -0.111000
      4 CAD         -4.0420    -0.4690    -3.4590 ca         1 G24      -0.109500
      5 CAH         -2.6710    -0.7760    -3.4360 ca         1 G24      -0.107500
      6 CAG         -1.8850    -0.6120    -4.5950 ca         1 G24      -0.098300
      7 CAQ         -0.3950    -0.9380    -4.5630 c3         1 G24       0.016200
      8 CAP          0.3390    -0.2330    -3.4180 ca         1 G24      -0.171300
      9 CAO          1.0030    -1.0060    -2.4430 ca         1 G24      -0.082000
     10 CBA          0.3750     1.1740    -3.3180 ca         1 G24       0.135100
     11 OBC         -0.2740     1.9510    -4.2300 oh         1 G24      -0.555100
     12 CAZ          1.0710     1.7910    -2.2690 ca         1 G24      -0.142000
     13 CAY          1.7280     1.0140    -1.3010 ca         1 G24      -0.063000
     14 CAN          1.6930    -0.3910    -1.3800 ca         1 G24      -0.094300
     15 CAM          2.3930    -1.2460    -0.3250 c3         1 G24       0.034200
     16 CAL          2.0830    -0.7920     1.1140 ca         1 G24      -0.156300
     17 CAX          3.0620    -0.1210     1.8980 ca         1 G24      -0.035300
     18 CBB          4.4630     0.1830     1.3700 c3         1 G24      -0.043800
     19 CAW          2.7460     0.2850     3.2080 ca         1 G24      -0.195000
     20 CAK          0.7980    -1.0360     1.6710 ca         1 G24      -0.035300
     21 CAE         -0.3040    -1.7430     0.8790 c3         1 G24      -0.043800
     22 CAJ          0.5090    -0.6170     2.9830 ca         1 G24      -0.195000
     23 CAV          1.4820     0.0430     3.7550 ca         1 G24       0.183100
     24 OAU          1.2450     0.4710     5.0470 os         1 G24      -0.294100
     25 CAT         -0.0280     0.2720     5.7080 c3         1 G24      -0.005400
     26 CAS         -0.0620     0.8370     7.1590 c          1 G24       0.737000
     27 OAR         -1.1030     0.7100     7.7910 o          1 G24      -0.709000
     28 OAI          0.9350     1.3820     7.6200 o          1 G24      -0.709000
     29 HAF         -1.9020    -0.0200    -6.6860 ha         1 G24       0.118500
     30 HAB         -4.3240     0.5230    -6.7170 ha         1 G24       0.113000
     31 HAC         -5.6990     0.2390    -4.6580 ha         1 G24       0.110000
     32 HAD         -4.6420    -0.5960    -2.5600 ha         1 G24       0.113000
     33 HAH         -2.2170    -1.1400    -2.5160 ha         1 G24       0.118500
     34 HAQ1         0.0780    -0.6680    -5.5150 hc         1 G24       0.053700
     35 HAQ2        -0.2740    -2.0260    -4.4820 hc         1 G24       0.053700
     36 HAO          0.9800    -2.0910    -2.5080 ha         1 G24       0.103000
     37 HBC         -0.8710     1.3620    -4.7370 ho         1 G24       0.469000
     38 HAZ          1.0950     2.8760    -2.1980 ha         1 G24       0.125000
     39 HAY          2.2560     1.5070    -0.4880 ha         1 G24       0.129000
     40 HAM1         3.4670    -1.2490    -0.5340 hc         1 G24       0.041700
     41 HAM2         2.1050    -2.2980    -0.4410 hc         1 G24       0.041700
     42 HBB1         5.0300    -0.7410     1.2040 hc         1 G24       0.032700
     43 HBB2         4.4250     0.7350     0.4240 hc         1 G24       0.032700
     44 HBB3         5.0410     0.7950     2.0740 hc         1 G24       0.032700
     45 HAW          3.4890     0.7960     3.8140 ha         1 G24       0.124000
     46 HAE1        -0.6180    -1.1450     0.0170 hc         1 G24       0.032700
     47 HAE2         0.0280    -2.7220     0.5150 hc         1 G24       0.032700
     48 HAE3        -1.1970    -1.9180     1.4910 hc         1 G24       0.032700
     49 HAJ         -0.4780    -0.8100     3.3920 ha         1 G24       0.124000
     50 HAT1        -0.8280     0.7660     5.1420 h1         1 G24       0.016700
     51 HAT2        -0.2600    -0.7990     5.7640 h1         1 G24       0.016700
@<TRIPOS>BOND
     1     1     2 ar  
     2     1     6 ar  
     3     1    29 1   
     4     2     3 ar  
     5     2    30 1   
     6     3     4 ar  
     7     3    31 1   
     8     4     5 ar  
     9     4    32 1   
    10     5     6 ar  
    11     5    33 1   
    12     6     7 1   
    13     7     8 1   
    14     7    34 1   
    15     7    35 1   
    16     8     9 ar  
    17     8    10 ar  
    18     9    14 ar  
    19     9    36 1   
    20    10    11 1   
    21    10    12 ar  
    22    11    37 1   
    23    12    13 ar  
    24    12    38 1   
    25    13    14 ar  
    26    13    39 1   
    27    14    15 1   
    28    15    16 1   
    29    15    40 1   
    30    15    41 1   
    31    16    17 ar  
    32    16    20 ar  
    33    17    18 1   
    34    17    19 ar  
    35    18    42 1   
    36    18    43 1   
    37    18    44 1   
    38    19    23 ar  
    39    19    45 1   
    40    20    21 1   
    41    20    22 ar  
    42    21    46 1   
    43    21    47 1   
    44    21    48 1   
    45    22    23 ar  
    46    22    49 1   
    47    23    24 1   
    48    24    25 1   
    49    25    26 1   
    50    25    50 1   
    51    25    51 1   
    52    26    27 1   
    53    26    28 1   
@<TRIPOS>SUBSTRUCTURE
     1 G24         1 TEMP              0 ****  ****    0 ROOT
