@<TRIPOS>MOLECULE
G26
   79    82     1     0     0
SMALL
No Charge or Current Charge


@<TRIPOS>ATOM
      1 C            3.6560    -0.1580     1.4640 c5         1 G26       0.113000
      2 C1           2.2420     0.2480     2.0120 c5         1 G26       0.097500
      3 C2           1.4870    -1.4200     0.4510 c5         1 G26       0.311500
      4 C3           0.8430    -1.6970    -0.9280 c3         1 G26       0.037700
      5 C4          -0.6770    -1.9360    -0.7660 c          1 G26       0.587100
      6 C5           4.6960    -0.5880     2.5340 c3         1 G26      -0.078600
      7 C6           4.2800     0.9790     0.6130 c3         1 G26      -0.078600
      8 C7           1.8940    -0.4960     3.3660 c          1 G26       0.570100
      9 C8           1.2190     0.1460     5.7150 c3         1 G26       0.107700
     10 C10          2.0610     0.8650     6.8040 c3         1 G26       0.150600
     11 C12          1.7000     0.4450    -4.0430 c3         1 G26      -0.113100
     12 C13         -0.2410     2.0790    -3.8490 ca         1 G26      -0.107000
     13 C14          0.4710     1.1400    -4.6210 ca         1 G26      -0.095300
     14 C15          0.0330     0.8420    -5.9260 ca         1 G26      -0.107000
     15 C16         -1.1010     1.4820    -6.4570 ca         1 G26      -0.107000
     16 C17         -1.8020     2.4230    -5.6850 ca         1 G26      -0.107000
     17 C18         -1.3730     2.7190    -4.3800 ca         1 G26      -0.107000
     18 C19         -0.2940     0.4800     5.7990 c3         1 G26      -0.050100
     19 C20         -2.5830    -1.4710     2.6620 ca         1 G26      -0.110000
     20 C21         -2.2160    -2.1850     3.8150 ca         1 G26      -0.111000
     21 C22         -1.4850    -1.5500     4.8340 ca         1 G26      -0.107000
     22 C23         -1.1160    -0.1970     4.7060 ca         1 G26      -0.087300
     23 C24         -1.4880     0.5150     3.5470 ca         1 G26      -0.107000
     24 C25         -2.2190    -0.1200     2.5280 ca         1 G26      -0.111000
     25 C26         -4.4650     2.2600    -2.4140 ca         1 G26      -0.113500
     26 C27         -4.7610     2.0360    -3.7690 ca         1 G26      -0.110000
     27 C28         -4.4660     0.7930    -4.3540 ca         1 G26      -0.113500
     28 C29         -3.8780    -0.2260    -3.5850 ca         1 G26      -0.104000
     29 C30         -3.5880    -0.0100    -2.2230 ca         1 G26      -0.102300
     30 C31         -3.8800     1.2400    -1.6430 ca         1 G26      -0.104000
     31 N            1.2930    -0.0080     0.8720 n7         1 G26      -0.883400
     32 N1           1.7360     0.4370     4.3720 ns         1 G26      -0.489900
     33 N2           1.1510    -0.6210    -1.9070 ns         1 G26      -0.505900
     34 N3          -1.5130    -1.0400    -1.3960 ns         1 G26      -0.497900
     35 O            1.7320    -1.6970     3.5430 o          1 G26      -0.585100
     36 O1          -1.1230    -2.8840    -0.1330 o          1 G26      -0.608100
     37 O2           1.0650    -1.8800    -3.7960 o          1 G26      -0.585100
     38 S            3.3330    -1.5850     0.3180 ss         1 G26      -0.409000
     39 H1           2.2430     1.3240     2.2370 h1         1 G26       0.077700
     40 H2           1.1170    -2.1390     1.1960 h2         1 G26       0.112700
     41 H3           1.2520    -2.6430    -1.3010 h1         1 G26       0.117700
     42 H51          5.6690    -0.8040     2.0760 hc         1 G26       0.045867
     43 H52          4.8490     0.2020     3.2790 hc         1 G26       0.045867
     44 H53          4.3890    -1.4970     3.0630 hc         1 G26       0.045867
     45 H61          5.2210     0.6610     0.1470 hc         1 G26       0.045867
     46 H62          3.6050     1.2910    -0.1930 hc         1 G26       0.045867
     47 H63          4.4940     1.8620     1.2260 hc         1 G26       0.045867
     48 H8           1.3230    -0.9320     5.8980 h1         1 G26       0.088700
     49 H91         -3.2780    -2.0970    -1.7780 h1         1 G26       0.066200
     50 H92         -3.3260    -1.0420    -0.3510 h1         1 G26       0.066200
     51 H101         1.6200     0.6660     7.7900 h1         1 G26       0.031700
     52 H102         3.0720     0.4350     6.8030 h1         1 G26       0.031700
     53 H121         2.2150     1.1440    -3.3730 hc         1 G26       0.073200
     54 H122         2.3770     0.1490    -4.8530 hc         1 G26       0.073200
     55 H15          0.5690     0.1130    -6.5310 ha         1 G26       0.117000
     56 H16         -1.4360     1.2480    -7.4650 ha         1 G26       0.118500
     57 H17         -2.6810     2.9170    -6.0940 ha         1 G26       0.114000
     58 H18         -1.9200     3.4420    -3.7800 ha         1 G26       0.118500
     59 H191        -0.6690     0.1820     6.7860 hc         1 G26       0.058700
     60 H192        -0.4260     1.5680     5.7440 hc         1 G26       0.058700
     61 H20         -3.1480    -1.9650     1.8750 ha         1 G26       0.121000
     62 H21         -2.4960    -3.2310     3.9180 ha         1 G26       0.117000
     63 H22         -1.1980    -2.1130     5.7190 ha         1 G26       0.111000
     64 H24         -1.2060     1.5590     3.4340 ha         1 G26       0.111000
     65 H25         -2.5030     0.4340     1.6360 ha         1 G26       0.117000
     66 H26         -4.6900     3.2230    -1.9600 ha         1 G26       0.112500
     67 H27         -5.2140     2.8250    -4.3650 ha         1 G26       0.114000
     68 H28         -4.6880     0.6210    -5.4050 ha         1 G26       0.112500
     69 H29         -3.6510    -1.1840    -4.0470 ha         1 G26       0.115000
     70 H31         -3.6560     1.4210    -0.5940 ha         1 G26       0.115000
     71 HN           0.3220     0.1300     1.1820 hn         1 G26       0.450000
     72 HN1          1.9040     1.4090     4.1420 hn         1 G26       0.318500
     73 HN2          1.3960     0.2880    -1.5280 hn         1 G26       0.326500
     74 HN3         -1.0700    -0.2930    -1.9170 hn         1 G26       0.330500
     75 C11          1.2920    -0.8050    -3.2610 c          1 G26       0.610100
     76 O4           2.1310     2.2820     6.5580 oh         1 G26      -0.670000
     77 C9          -2.9700    -1.1180    -1.3860 c3         1 G26       0.143300
     78 H13          0.0830     2.3170    -2.8380 ha         1 G26       0.117000
     79 HO4          2.6730     2.6720     7.2800 ho         1 G26       0.448000
@<TRIPOS>BOND
     1     1     2 1   
     2     1     6 1   
     3     1     7 1   
     4     1    38 1   
     5     2     8 1   
     6     2    31 1   
     7     2    39 1   
     8     3     4 1   
     9     3    31 1   
    10     3    38 1   
    11     3    40 1   
    12     4     5 1   
    13     4    33 1   
    14     4    41 1   
    15     5    34 1   
    16     5    36 2   
    17     6    42 1   
    18     6    43 1   
    19     6    44 1   
    20     7    45 1   
    21     7    46 1   
    22     7    47 1   
    23     8    32 1   
    24     8    35 2   
    25     9    10 1   
    26     9    18 1   
    27     9    32 1   
    28     9    48 1   
    29    10    51 1   
    30    10    52 1   
    31    10    76 1   
    32    11    13 1   
    33    11    53 1   
    34    11    54 1   
    35    11    75 1   
    36    12    13 ar  
    37    12    17 ar  
    38    12    78 1   
    39    13    14 ar  
    40    14    15 ar  
    41    14    55 1   
    42    15    16 ar  
    43    15    56 1   
    44    16    17 ar  
    45    16    57 1   
    46    17    58 1   
    47    18    22 1   
    48    18    59 1   
    49    18    60 1   
    50    19    20 ar  
    51    19    24 ar  
    52    19    61 1   
    53    20    21 ar  
    54    20    62 1   
    55    21    22 ar  
    56    21    63 1   
    57    22    23 ar  
    58    23    24 ar  
    59    23    64 1   
    60    24    65 1   
    61    25    26 ar  
    62    25    30 ar  
    63    25    66 1   
    64    26    27 ar  
    65    26    67 1   
    66    27    28 ar  
    67    27    68 1   
    68    28    29 ar  
    69    28    69 1   
    70    29    30 ar  
    71    29    77 1   
    72    30    70 1   
    73    31    71 1   
    74    32    72 1   
    75    33    73 1   
    76    33    75 1   
    77    34    74 1   
    78    34    77 1   
    79    37    75 2   
    80    49    77 1   
    81    50    77 1   
    82    76    79 1   
@<TRIPOS>SUBSTRUCTURE
     1 G26         1 TEMP              0 ****  ****    0 ROOT
