@<TRIPOS>MOLECULE
G26
   79    82     1     0     0
SMALL
abcg2


@<TRIPOS>ATOM
      1 C            3.2350     0.1400     1.2980 c5         1 G26       0.113000
      2 C1           1.7940     0.2410     1.8370 c5         1 G26       0.097500
      3 C2           1.4220    -1.5730     0.2930 c5         1 G26       0.311500
      4 C3           0.9520    -1.7620    -1.1540 c3         1 G26       0.037700
      5 C4          -0.5660    -2.0090    -1.1570 c          1 G26       0.587100
      6 C5           4.2970     0.1120     2.3910 c3         1 G26      -0.078600
      7 C6           3.5240     1.2940     0.3420 c3         1 G26      -0.078600
      8 C7           1.6060    -0.4660     3.1800 c          1 G26       0.570100
      9 C8           1.0670    -0.0850     5.5430 c3         1 G26       0.107700
     10 C10          1.9700     0.4320     6.6480 c3         1 G26       0.150600
     11 C12          2.1150     0.6130    -3.8520 c3         1 G26      -0.113100
     12 C13         -0.1870     1.6480    -3.8920 ca         1 G26      -0.107000
     13 C14          0.7790     0.8570    -4.5110 ca         1 G26      -0.095300
     14 C15          0.4540     0.2070    -5.6990 ca         1 G26      -0.107000
     15 C16         -0.8120     0.3420    -6.2530 ca         1 G26      -0.107000
     16 C17         -1.7730     1.1210    -5.6210 ca         1 G26      -0.107000
     17 C18         -1.4570     1.7760    -4.4390 ca         1 G26      -0.107000
     18 C19         -0.4080     0.3180     5.7470 c3         1 G26      -0.050100
     19 C20         -2.6060    -0.6080     2.1670 ca         1 G26      -0.110000
     20 C21         -2.3300    -1.6060     3.0940 ca         1 G26      -0.111000
     21 C22         -1.6570    -1.3000     4.2690 ca         1 G26      -0.107000
     22 C23         -1.2400     0.0010     4.5360 ca         1 G26      -0.087300
     23 C24         -1.5320     0.9950     3.6050 ca         1 G26      -0.107000
     24 C25         -2.2120     0.6970     2.4310 ca         1 G26      -0.111000
     25 C26         -3.2910     2.2810    -1.1580 ca         1 G26      -0.113500
     26 C27         -4.4060     2.6090    -1.9180 ca         1 G26      -0.110000
     27 C28         -4.9620     1.6560    -2.7610 ca         1 G26      -0.113500
     28 C29         -4.4030     0.3880    -2.8440 ca         1 G26      -0.104000
     29 C30         -3.2890     0.0500    -2.0840 ca         1 G26      -0.102300
     30 C31         -2.7370     1.0110    -1.2410 ca         1 G26      -0.104000
     31 N            0.9330    -0.3070     0.8100 n7         1 G26      -0.883400
     32 N1           1.5370     0.3520     4.2460 ns         1 G26      -0.489900
     33 N2           1.3280    -0.6420    -1.9630 ns         1 G26      -0.505900
     34 N3          -1.2640    -1.3210    -2.0720 ns         1 G26      -0.497900
     35 O            1.5100    -1.6810     3.2550 o          1 G26      -0.585100
     36 O1          -1.0630    -2.7880    -0.3600 o          1 G26      -0.608100
     37 O2           2.4120    -1.7630    -3.6040 o          1 G26      -0.585100
     38 S            3.2360    -1.4620     0.3980 ss         1 G26      -0.409000
     39 H1           1.5520     1.3020     1.9580 h1         1 G26       0.077700
     40 H2           1.1010    -2.4370     0.8750 h2         1 G26       0.112700
     41 H3           1.4160    -2.6630    -1.5620 h1         1 G26       0.117700
     42 H51          5.2920     0.0600     1.9500 hc         1 G26       0.045867
     43 H52          4.2510     1.0250     2.9870 hc         1 G26       0.045867
     44 H53          4.1840    -0.7410     3.0580 hc         1 G26       0.045867
     45 H61          4.4820     1.1500    -0.1570 hc         1 G26       0.045867
     46 H62          2.7590     1.3920    -0.4260 hc         1 G26       0.045867
     47 H63          3.5700     2.2360     0.8930 hc         1 G26       0.045867
     48 H8           1.1370    -1.1730     5.5580 h1         1 G26       0.088700
     49 H91         -2.9990    -1.7900    -3.1340 h1         1 G26       0.066200
     50 H92         -3.0970    -1.9760    -1.3950 h1         1 G26       0.066200
     51 H101         1.6100     0.0350     7.6060 h1         1 G26       0.031700
     52 H102         2.9780     0.0320     6.4890 h1         1 G26       0.031700
     53 H121         2.3510     1.4230    -3.1580 hc         1 G26       0.073200
     54 H122         2.9150     0.5550    -4.5880 hc         1 G26       0.073200
     55 H15          1.1920    -0.4150    -6.1910 ha         1 G26       0.117000
     56 H16         -1.0500    -0.1690    -7.1770 ha         1 G26       0.118500
     57 H17         -2.7640     1.2140    -6.0440 ha         1 G26       0.114000
     58 H18         -2.2010     2.3790    -3.9350 ha         1 G26       0.118500
     59 H191        -0.7850    -0.2090     6.6280 hc         1 G26       0.058700
     60 H192        -0.4710     1.3860     5.9650 hc         1 G26       0.058700
     61 H20         -3.1270    -0.8460     1.2480 ha         1 G26       0.121000
     62 H21         -2.6350    -2.6250     2.8970 ha         1 G26       0.117000
     63 H22         -1.4420    -2.0880     4.9820 ha         1 G26       0.111000
     64 H24         -1.2210     2.0150     3.7980 ha         1 G26       0.111000
     65 H25         -2.4340     1.4870     1.7240 ha         1 G26       0.117000
     66 H26         -2.8430     3.0180    -0.5040 ha         1 G26       0.112500
     67 H27         -4.8340     3.6010    -1.8580 ha         1 G26       0.114000
     68 H28         -5.8270     1.9020    -3.3630 ha         1 G26       0.112500
     69 H29         -4.8340    -0.3430    -3.5180 ha         1 G26       0.115000
     70 H31         -1.8530     0.7800    -0.6590 ha         1 G26       0.115000
     71 HN          -0.0200    -0.4020     1.1490 hn         1 G26       0.450000
     72 HN1          1.5740     1.3470     4.0880 hn         1 G26       0.318500
     73 HN2          1.1450     0.2630    -1.5550 hn         1 G26       0.326500
     74 HN3         -0.7640    -0.7160    -2.7060 hn         1 G26       0.330500
     75 C11          2.0110    -0.7180    -3.1260 c          1 G26       0.610100
     76 O4           1.9630     1.8410     6.6270 oh         1 G26      -0.670000
     77 C9          -2.7010    -1.3360    -2.1850 c3         1 G26       0.143300
     78 H13          0.0500     2.1640    -2.9680 ha         1 G26       0.117000
     79 HO4          2.6070     2.1560     7.2680 ho         1 G26       0.448000
@<TRIPOS>BOND
     1     1     2 1   
     2     1     6 1   
     3     1     7 1   
     4     1    38 1   
     5     2     8 1   
     6     2    31 1   
     7     2    39 1   
     8     3     4 1   
     9     3    31 1   
    10     3    38 1   
    11     3    40 1   
    12     4     5 1   
    13     4    33 1   
    14     4    41 1   
    15     5    34 1   
    16     5    36 2   
    17     6    42 1   
    18     6    43 1   
    19     6    44 1   
    20     7    45 1   
    21     7    46 1   
    22     7    47 1   
    23     8    32 1   
    24     8    35 2   
    25     9    10 1   
    26     9    18 1   
    27     9    32 1   
    28     9    48 1   
    29    10    51 1   
    30    10    52 1   
    31    10    76 1   
    32    11    13 1   
    33    11    53 1   
    34    11    54 1   
    35    11    75 1   
    36    12    13 ar  
    37    12    17 ar  
    38    12    78 1   
    39    13    14 ar  
    40    14    15 ar  
    41    14    55 1   
    42    15    16 ar  
    43    15    56 1   
    44    16    17 ar  
    45    16    57 1   
    46    17    58 1   
    47    18    22 1   
    48    18    59 1   
    49    18    60 1   
    50    19    20 ar  
    51    19    24 ar  
    52    19    61 1   
    53    20    21 ar  
    54    20    62 1   
    55    21    22 ar  
    56    21    63 1   
    57    22    23 ar  
    58    23    24 ar  
    59    23    64 1   
    60    24    65 1   
    61    25    26 ar  
    62    25    30 ar  
    63    25    66 1   
    64    26    27 ar  
    65    26    67 1   
    66    27    28 ar  
    67    27    68 1   
    68    28    29 ar  
    69    28    69 1   
    70    29    30 ar  
    71    29    77 1   
    72    30    70 1   
    73    31    71 1   
    74    32    72 1   
    75    33    73 1   
    76    33    75 1   
    77    34    74 1   
    78    34    77 1   
    79    37    75 2   
    80    49    77 1   
    81    50    77 1   
    82    76    79 1   
@<TRIPOS>SUBSTRUCTURE
     1 G26         1 TEMP              0 ****  ****    0 ROOT
