@<TRIPOS>MOLECULE
G27
   42    43     1     0     0
SMALL
No Charge or Current Charge


@<TRIPOS>ATOM
      1 C12         -4.5930     1.0070     0.8930 ca         1 G27      -0.107500
      2 C13         -5.7990     0.4730     1.3790 ca         1 G27      -0.109500
      3 C14         -6.4470    -0.5560     0.6760 ca         1 G27      -0.111000
      4 C15         -5.8880    -1.0520    -0.5140 ca         1 G27      -0.109500
      5 C16         -4.6820    -0.5180    -1.0010 ca         1 G27      -0.107500
      6 C11         -4.0290     0.5150    -0.3010 ca         1 G27      -0.078300
      7 C10         -2.7190     1.0910    -0.8250 c3         1 G27      -0.032100
      8 C9          -1.4910     0.3500    -0.2550 c3         1 G27      -0.076400
      9 C8          -0.1520     0.9140    -0.7830 c3         1 G27       0.171800
     10 N1           1.0620     0.3510    -0.1390 n3         1 G27      -0.717600
     11 C7           2.2880     1.1130    -0.5200 c6         1 G27       0.168800
     12 C2           1.2420    -1.1150    -0.3720 c6         1 G27       0.133800
     13 C3           2.4670    -1.6770     0.4050 c6         1 G27       0.129300
     14 O3           2.6440    -3.0890     0.1590 oh         1 G27      -0.671000
     15 C4           3.7490    -0.8960     0.0010 c6         1 G27       0.179300
     16 O4           4.8650    -1.4050     0.7460 oh         1 G27      -0.662000
     17 C5           3.5560     0.6270     0.2360 c6         1 G27      -0.062700
     18 C6           4.8140     1.4400    -0.1880 c3         1 G27       0.167600
     19 O6           4.6750     2.8400     0.0900 oh         1 G27      -0.666000
     20 H12         -4.0960     1.8020     1.4450 ha         1 G27       0.110000
     21 H13         -6.2300     0.8560     2.3020 ha         1 G27       0.111500
     22 H14         -7.3810    -0.9700     1.0520 ha         1 G27       0.112000
     23 H15         -6.3880    -1.8500    -1.0590 ha         1 G27       0.111500
     24 H16         -4.2540    -0.9090    -1.9210 ha         1 G27       0.110000
     25 H101        -2.6480     2.1550    -0.5700 hc         1 G27       0.045700
     26 H102        -2.6960     1.0360    -1.9200 hc         1 G27       0.045700
     27 H91         -1.5760    -0.7120    -0.5130 hc         1 G27       0.050200
     28 H92         -1.5040     0.4210     0.8390 hc         1 G27       0.050200
     29 H81         -0.1680     2.0000    -0.6190 h1         1 G27       0.031200
     30 H82         -0.1060     0.7570    -1.8690 h1         1 G27       0.031200
     31 H71          2.1380     2.1820    -0.3070 h1         1 G27       0.042200
     32 H72          2.4620     1.0270    -1.6040 h1         1 G27       0.042200
     33 H21          0.3530    -1.6690    -0.0420 h1         1 G27       0.038200
     34 H22          1.3710    -1.3150    -1.4460 h1         1 G27       0.038200
     35 H3           2.2860    -1.5070     1.4770 h1         1 G27       0.058700
     36 HO3          1.8320    -3.5410     0.4810 ho         1 G27       0.450000
     37 H4           3.9220    -1.0580    -1.0740 h1         1 G27       0.036700
     38 HO4          4.7130    -2.3780     0.7790 ho         1 G27       0.459000
     39 H5           3.4110     0.8050     1.3100 hc         1 G27       0.084700
     40 H61          4.9870     1.2830    -1.2620 h1         1 G27       0.028200
     41 H62          5.6880     1.0460     0.3470 h1         1 G27       0.028200
     42 HO6          5.5180     3.2700    -0.1750 ho         1 G27       0.443000
@<TRIPOS>BOND
     1     1     2 ar  
     2     1     6 ar  
     3     1    20 1   
     4     2     3 ar  
     5     2    21 1   
     6     3     4 ar  
     7     3    22 1   
     8     4     5 ar  
     9     4    23 1   
    10     5     6 ar  
    11     5    24 1   
    12     6     7 1   
    13     7     8 1   
    14     7    25 1   
    15     7    26 1   
    16     8     9 1   
    17     8    27 1   
    18     8    28 1   
    19     9    10 1   
    20     9    29 1   
    21     9    30 1   
    22    10    11 1   
    23    10    12 1   
    24    11    17 1   
    25    11    31 1   
    26    11    32 1   
    27    12    13 1   
    28    12    33 1   
    29    12    34 1   
    30    13    14 1   
    31    13    15 1   
    32    13    35 1   
    33    14    36 1   
    34    15    16 1   
    35    15    17 1   
    36    15    37 1   
    37    16    38 1   
    38    17    18 1   
    39    17    39 1   
    40    18    19 1   
    41    18    40 1   
    42    18    41 1   
    43    19    42 1   
@<TRIPOS>SUBSTRUCTURE
     1 G27         1 TEMP              0 ****  ****    0 ROOT
