@<TRIPOS>MOLECULE
G27
   42    43     1     0     0
SMALL
abcg2


@<TRIPOS>ATOM
      1 C12         -4.5670     1.1250     0.7900 ca         1 G27      -0.107500
      2 C13         -5.7490     0.6150     1.3120 ca         1 G27      -0.109500
      3 C14         -6.3380    -0.5050     0.7380 ca         1 G27      -0.111000
      4 C15         -5.7370    -1.1070    -0.3600 ca         1 G27      -0.109500
      5 C16         -4.5560    -0.5930    -0.8770 ca         1 G27      -0.107500
      6 C11         -3.9540     0.5300    -0.3110 ca         1 G27      -0.078300
      7 C10         -2.6510     1.0540    -0.8450 c3         1 G27      -0.032100
      8 C9          -1.4480     0.3460    -0.2170 c3         1 G27      -0.076400
      9 C8          -0.1390     0.8810    -0.7800 c3         1 G27       0.171800
     10 N1           1.0440     0.3090    -0.1610 n3         1 G27      -0.717600
     11 C7           2.2310     1.0770    -0.4870 c6         1 G27       0.168800
     12 C2           1.2360    -1.0850    -0.5030 c6         1 G27       0.133800
     13 C3           2.3960    -1.6710     0.2920 c6         1 G27       0.129300
     14 O3           2.6360    -3.0180    -0.0560 oh         1 G27      -0.671000
     15 C4           3.6750    -0.8960     0.0140 c6         1 G27       0.179300
     16 O4           4.7440    -1.3570     0.8090 oh         1 G27      -0.662000
     17 C5           3.4560     0.5880     0.2830 c6         1 G27      -0.062700
     18 C6           4.6950     1.3900    -0.0880 c3         1 G27       0.167600
     19 O6           4.4730     2.7510     0.2170 oh         1 G27      -0.666000
     20 H12         -4.1140     2.0000     1.2430 ha         1 G27       0.110000
     21 H13         -6.2110     1.0950     2.1650 ha         1 G27       0.111500
     22 H14         -7.2600    -0.9030     1.1420 ha         1 G27       0.112000
     23 H15         -6.1910    -1.9770    -0.8170 ha         1 G27       0.111500
     24 H16         -4.0950    -1.0700    -1.7350 ha         1 G27       0.110000
     25 H101        -2.5770     2.1280    -0.6560 hc         1 G27       0.045700
     26 H102        -2.6170     0.9250    -1.9310 hc         1 G27       0.045700
     27 H91         -1.5440    -0.7280    -0.3960 hc         1 G27       0.050200
     28 H92         -1.4620     0.4880     0.8670 hc         1 G27       0.050200
     29 H81         -0.1120     1.9610    -0.6090 h1         1 G27       0.031200
     30 H82         -0.1300     0.7450    -1.8760 h1         1 G27       0.031200
     31 H71          2.0470     2.1230    -0.2410 h1         1 G27       0.042200
     32 H72          2.4490     1.0400    -1.5720 h1         1 G27       0.042200
     33 H21          0.3320    -1.6510    -0.2700 h1         1 G27       0.038200
     34 H22          1.4300    -1.2200    -1.5830 h1         1 G27       0.038200
     35 H3           2.1630    -1.5770     1.3630 h1         1 G27       0.058700
     36 HO3          1.9400    -3.5620     0.3240 ho         1 G27       0.450000
     37 H4           3.9100    -1.0180    -1.0590 h1         1 G27       0.036700
     38 HO4          4.8370    -2.3040     0.6560 ho         1 G27       0.459000
     39 H5           3.2590     0.7150     1.3550 hc         1 G27       0.084700
     40 H61          4.9010     1.2480    -1.1590 h1         1 G27       0.028200
     41 H62          5.5620     1.0010     0.4580 h1         1 G27       0.028200
     42 HO6          5.2300     3.2520    -0.1000 ho         1 G27       0.443000
@<TRIPOS>BOND
     1     1     2 ar  
     2     1     6 ar  
     3     1    20 1   
     4     2     3 ar  
     5     2    21 1   
     6     3     4 ar  
     7     3    22 1   
     8     4     5 ar  
     9     4    23 1   
    10     5     6 ar  
    11     5    24 1   
    12     6     7 1   
    13     7     8 1   
    14     7    25 1   
    15     7    26 1   
    16     8     9 1   
    17     8    27 1   
    18     8    28 1   
    19     9    10 1   
    20     9    29 1   
    21     9    30 1   
    22    10    11 1   
    23    10    12 1   
    24    11    17 1   
    25    11    31 1   
    26    11    32 1   
    27    12    13 1   
    28    12    33 1   
    29    12    34 1   
    30    13    14 1   
    31    13    15 1   
    32    13    35 1   
    33    14    36 1   
    34    15    16 1   
    35    15    17 1   
    36    15    37 1   
    37    16    38 1   
    38    17    18 1   
    39    17    39 1   
    40    18    19 1   
    41    18    40 1   
    42    18    41 1   
    43    19    42 1   
@<TRIPOS>SUBSTRUCTURE
     1 G27         1 TEMP              0 ****  ****    0 ROOT
