@<TRIPOS>MOLECULE
G28
   43    43     1     0     0
SMALL
abcg2


@<TRIPOS>ATOM
      1 C1           3.6940    -0.3660    -0.7530 c          1 G28       0.730000
      2 O1A          4.5900     0.4810    -0.9500 o          1 G28      -0.719500
      3 O1B          3.8020    -1.6010    -0.8240 o          1 G28      -0.719500
      4 C2           2.3270     0.2330    -0.3770 c6         1 G28       0.022300
      5 C3           1.8330     1.1950    -1.4480 c6         1 G28      -0.090400
      6 C4           0.4340     1.7100    -1.1340 c6         1 G28       0.143500
      7 C5          -0.5030     0.5220    -0.8880 c6         1 G28       0.087700
      8 N5          -0.7620    -0.1960    -2.1190 ns         1 G28      -0.493900
      9 C10         -1.7820     0.0960    -2.9450 c          1 G28       0.597100
     10 O10         -2.6010     0.9740    -2.7050 o          1 G28      -0.640100
     11 C11         -1.8630    -0.7440    -4.1950 c3         1 G28      -0.179100
     12 C6           0.0810    -0.4680     0.1370 c6         1 G28       0.104300
     13 O6           1.3950    -0.8240    -0.1760 os         1 G28      -0.407000
     14 C7          -0.0650    -0.0210     1.5990 c          1 G28       0.592100
     15 O7           0.9160     0.1960     2.2910 o          1 G28      -0.561100
     16 N8          -1.3260     0.0900     2.0900 n          1 G28      -0.426800
     17 C81         -1.4880     0.6540     3.4240 c3         1 G28       0.104500
     18 C82         -1.3710    -0.3400     4.5720 c3         1 G28      -0.117100
     19 C9          -2.4850    -0.5710     1.5000 c3         1 G28       0.104500
     20 C91         -2.5840    -2.0660     1.7860 c3         1 G28      -0.117100
     21 N4           0.4470     2.5380     0.0570 n8         1 G28      -0.992200
     22 H2           2.4550     0.7940     0.5530 h1         1 G28       0.063700
     23 H31          2.5300     2.0300    -1.5310 hc         1 G28       0.050200
     24 H32          1.8190     0.7030    -2.4260 hc         1 G28       0.050200
     25 H4           0.0530     2.2410    -2.0180 h1         1 G28       0.012700
     26 H5          -1.4580     0.9120    -0.5340 h1         1 G28       0.066700
     27 HN5         -0.1030    -0.9060    -2.3960 hn         1 G28       0.335500
     28 H111        -1.7990    -0.0960    -5.0700 hc         1 G28       0.054367
     29 H112        -1.0830    -1.4990    -4.2680 hc         1 G28       0.054367
     30 H113        -2.8310    -1.2430    -4.2330 hc         1 G28       0.054367
     31 H6          -0.4900    -1.3970     0.0320 h1         1 G28       0.058700
     32 H811        -2.4680     1.1340     3.4540 h1         1 G28       0.045200
     33 H812        -0.7520     1.4460     3.5500 h1         1 G28       0.045200
     34 H821        -1.4290     0.1910     5.5230 hc         1 G28       0.036033
     35 H822        -2.1730    -1.0760     4.5600 hc         1 G28       0.036033
     36 H823        -0.4190    -0.8700     4.5440 hc         1 G28       0.036033
     37 H91         -3.3720    -0.0680     1.8850 h1         1 G28       0.045200
     38 H92         -2.5140    -0.4120     0.4230 h1         1 G28       0.045200
     39 H911        -3.4480    -2.4780     1.2640 hc         1 G28       0.036033
     40 H912        -1.7020    -2.6060     1.4400 hc         1 G28       0.036033
     41 H913        -2.7070    -2.2710     2.8470 hc         1 G28       0.036033
     42 HN41         1.1260     3.2810    -0.0520 hn         1 G28       0.390000
     43 HN42        -0.4520     2.9900     0.1700 hn         1 G28       0.390000
@<TRIPOS>BOND
     1     1     2 1   
     2     1     3 1   
     3     1     4 1   
     4     4     5 1   
     5     4    13 1   
     6     4    22 1   
     7     5     6 1   
     8     5    23 1   
     9     5    24 1   
    10     6     7 1   
    11     6    21 1   
    12     6    25 1   
    13     7     8 1   
    14     7    12 1   
    15     7    26 1   
    16     8     9 1   
    17     8    27 1   
    18     9    10 2   
    19     9    11 1   
    20    11    28 1   
    21    11    29 1   
    22    11    30 1   
    23    12    13 1   
    24    12    14 1   
    25    12    31 1   
    26    14    15 2   
    27    14    16 1   
    28    16    17 1   
    29    16    19 1   
    30    17    18 1   
    31    17    32 1   
    32    17    33 1   
    33    18    34 1   
    34    18    35 1   
    35    18    36 1   
    36    19    20 1   
    37    19    37 1   
    38    19    38 1   
    39    20    39 1   
    40    20    40 1   
    41    20    41 1   
    42    21    42 1   
    43    21    43 1   
@<TRIPOS>SUBSTRUCTURE
     1 G28         1 TEMP              0 ****  ****    0 ROOT
