@<TRIPOS>MOLECULE
G28
   43    43     1     0     0
SMALL
No Charge or Current Charge


@<TRIPOS>ATOM
      1 C1           3.8700    -0.1950    -0.8930 c          1 G28       0.730000
      2 O1A          4.7450     0.2470    -0.1570 o          1 G28      -0.719500
      3 O1B          4.0350    -1.2810    -1.4370 o          1 G28      -0.719500
      4 C2           2.4000     0.1950    -0.4970 c6         1 G28       0.022300
      5 C3           1.8230     1.2470    -1.4820 c6         1 G28      -0.090400
      6 C4           0.3800     1.6600    -1.0940 c6         1 G28       0.143500
      7 C5          -0.5430     0.4090    -0.9210 c6         1 G28       0.087700
      8 N5          -0.8240    -0.2200    -2.2270 ns         1 G28      -0.493900
      9 C10         -1.7830     0.1840    -3.1230 c          1 G28       0.597100
     10 O10         -2.5450     1.1120    -2.8960 o          1 G28      -0.640100
     11 C11         -1.8270    -0.6180    -4.4170 c3         1 G28      -0.179100
     12 C6           0.1320    -0.6310     0.0370 c6         1 G28       0.104300
     13 O6           1.4850    -0.9440    -0.4220 os         1 G28      -0.407000
     14 C7           0.0080    -0.3010     1.5690 c          1 G28       0.592100
     15 O7           0.9880    -0.3380     2.3080 o          1 G28      -0.561100
     16 N8          -1.2720    -0.0430     2.1330 n          1 G28      -0.426800
     17 C81         -1.3770     0.7340     3.3940 c3         1 G28       0.104500
     18 C82         -1.4890    -0.1140     4.6740 c3         1 G28      -0.117100
     19 C9          -2.5110    -0.6690     1.5970 c3         1 G28       0.104500
     20 C91         -2.7320    -2.1160     2.0790 c3         1 G28      -0.117100
     21 N4           0.3940     2.5120     0.1170 n8         1 G28      -0.992200
     22 H2           2.4700     0.6540     0.4980 h1         1 G28       0.063700
     23 H31          2.4750     2.1300    -1.5110 hc         1 G28       0.050200
     24 H32          1.8270     0.8340    -2.5000 hc         1 G28       0.050200
     25 H4          -0.0250     2.2930    -1.8970 h1         1 G28       0.012700
     26 H5          -1.4980     0.7540    -0.5060 h1         1 G28       0.066700
     27 HN5         -0.2340    -0.9920    -2.5180 hn         1 G28       0.335500
     28 H111        -2.6060    -0.2690    -5.1050 hc         1 G28       0.054367
     29 H112        -0.8360    -0.5960    -4.8850 hc         1 G28       0.054367
     30 H113        -1.9460    -1.6800    -4.1760 hc         1 G28       0.054367
     31 H6          -0.4440    -1.5610    -0.0590 h1         1 G28       0.058700
     32 H811        -2.2510     1.3950     3.3290 h1         1 G28       0.045200
     33 H812        -0.4970     1.3860     3.4810 h1         1 G28       0.045200
     34 H821        -1.3980     0.5290     5.5580 hc         1 G28       0.036033
     35 H822        -2.4600    -0.6170     4.7300 hc         1 G28       0.036033
     36 H823        -0.6940    -0.8680     4.7140 hc         1 G28       0.036033
     37 H91         -3.3740    -0.0630     1.9050 h1         1 G28       0.045200
     38 H92         -2.5090    -0.6790     0.5040 h1         1 G28       0.045200
     39 H911        -3.6360    -2.5310     1.6190 hc         1 G28       0.036033
     40 H912        -1.8840    -2.7500     1.7940 hc         1 G28       0.036033
     41 H913        -2.8530    -2.1680     3.1650 hc         1 G28       0.036033
     42 HN41         1.0150     3.3110    -0.0500 hn         1 G28       0.390000
     43 HN42        -0.5290     2.9480     0.2260 hn         1 G28       0.390000
@<TRIPOS>BOND
     1     1     2 1   
     2     1     3 1   
     3     1     4 1   
     4     4     5 1   
     5     4    13 1   
     6     4    22 1   
     7     5     6 1   
     8     5    23 1   
     9     5    24 1   
    10     6     7 1   
    11     6    21 1   
    12     6    25 1   
    13     7     8 1   
    14     7    12 1   
    15     7    26 1   
    16     8     9 1   
    17     8    27 1   
    18     9    10 2   
    19     9    11 1   
    20    11    28 1   
    21    11    29 1   
    22    11    30 1   
    23    12    13 1   
    24    12    14 1   
    25    12    31 1   
    26    14    15 2   
    27    14    16 1   
    28    16    17 1   
    29    16    19 1   
    30    17    18 1   
    31    17    32 1   
    32    17    33 1   
    33    18    34 1   
    34    18    35 1   
    35    18    36 1   
    36    19    20 1   
    37    19    37 1   
    38    19    38 1   
    39    20    39 1   
    40    20    40 1   
    41    20    41 1   
    42    21    42 1   
    43    21    43 1   
@<TRIPOS>SUBSTRUCTURE
     1 G28         1 TEMP              0 ****  ****    0 ROOT
