@<TRIPOS>MOLECULE
G29
   54    57     1     0     0
SMALL
abcg2


@<TRIPOS>ATOM
      1 O1          -3.7690    -3.7660     1.0910 o          1 G29      -0.523100
      2 C3          -2.9270    -3.0290     0.5970 c          1 G29       0.565500
      3 C2          -2.1470    -3.4090    -0.5790 ce         1 G29      -0.297200
      4 C1          -1.2470    -2.5780    -1.1060 c2         1 G29      -0.148200
      5 C10         -0.9360    -1.2010    -0.6070 c6         1 G29       0.013400
      6 C19         -1.3000    -0.2470    -1.7690 c3         1 G29      -0.076100
      7 C9           0.5850    -1.1170    -0.2380 c6         1 G29      -0.039700
      8 C11          1.5100    -1.3950    -1.4330 c6         1 G29      -0.073400
      9 C12          2.9960    -1.3500    -1.0620 c6         1 G29      -0.051400
     10 C4          -2.6310    -1.7100     1.1580 ce         1 G29      -0.291200
     11 C5          -1.7310    -0.8710     0.6310 c2         1 G29      -0.081400
     12 C6          -1.4120     0.4070     1.3730 c6         1 G29       0.204500
     13 O           -1.7240     1.5750     0.6430 os         1 G29      -0.444000
     14 C23         -3.1100     1.7710     0.4710 c3         1 G29       0.248700
     15 C24         -3.3310     3.0670    -0.1550 c1         1 G29      -0.154100
     16 C25         -3.5360     4.1380    -0.6630 c1         1 G29      -0.108100
     17 C26         -3.7810     5.4350    -1.2730 c3         1 G29      -0.009000
     18 C7           0.0720     0.4340     1.6920 c6         1 G29      -0.065400
     19 C8           0.9370     0.2150     0.4580 c6         1 G29      -0.042700
     20 C14          2.4120     0.1670     0.8240 c5         1 G29      -0.061700
     21 C13          3.3200    -0.0230    -0.3960 c5         1 G29      -0.155000
     22 C18          3.2440     1.1350    -1.4090 c3         1 G29      -0.080100
     23 C15          3.0550     1.3230     1.5930 c5         1 G29      -0.067400
     24 C16          4.5530     1.0200     1.4560 c5         1 G29      -0.191400
     25 C17          4.6870     0.1170     0.2390 c          1 G29       0.581100
     26 O2           5.7100    -0.3900    -0.1520 o          1 G29      -0.510100
     27 H1          -2.3300    -4.3830    -1.0160 ha         1 G29       0.201000
     28 H2          -0.7160    -2.8930    -1.9960 ha         1 G29       0.180000
     29 H3          -2.3790    -0.2330    -1.9220 hc         1 G29       0.046033
     30 H4          -0.9700     0.7730    -1.5910 hc         1 G29       0.046033
     31 H5          -0.8440    -0.5900    -2.6970 hc         1 G29       0.046033
     32 H6           0.7570    -1.9090     0.5050 hc         1 G29       0.050700
     33 H7           1.2960    -2.3760    -1.8590 hc         1 G29       0.044200
     34 H8           1.3150    -0.6690    -2.2270 hc         1 G29       0.044200
     35 H9           3.2250    -2.1710    -0.3760 hc         1 G29       0.052700
     36 H10          3.6020    -1.5060    -1.9580 hc         1 G29       0.052700
     37 H11         -3.1640    -1.4360     2.0630 ha         1 G29       0.195000
     38 H12         -1.9830     0.4050     2.3130 h1         1 G29       0.044700
     39 H13         -3.5570     0.9830    -0.1490 h1         1 G29       0.042700
     40 H14         -3.6310     1.7380     1.4380 h1         1 G29       0.042700
     41 H15         -4.8320     5.7110    -1.1810 hc         1 G29       0.053700
     42 H16         -3.1890     6.2130    -0.7910 hc         1 G29       0.053700
     43 H17         -3.5300     5.4280    -2.3330 hc         1 G29       0.053700
     44 H18          0.3160     1.3830     2.1740 hc         1 G29       0.056700
     45 H19          0.2740    -0.3550     2.4240 hc         1 G29       0.056700
     46 H20          0.7740     1.0450    -0.2390 hc         1 G29       0.071700
     47 H21          2.5440    -0.7310     1.4490 hc         1 G29       0.047700
     48 H22          2.2510     1.2320    -1.8450 hc         1 G29       0.042033
     49 H23          3.4990     2.1010    -0.9710 hc         1 G29       0.042033
     50 H24          3.9430     0.9510    -2.2250 hc         1 G29       0.042033
     51 H25          2.7980     2.2870     1.1470 hc         1 G29       0.051200
     52 H26          2.7430     1.3590     2.6360 hc         1 G29       0.051200
     53 H27          5.1870     1.9030     1.3550 hc         1 G29       0.072700
     54 H28          4.9270     0.4710     2.3260 hc         1 G29       0.072700
@<TRIPOS>BOND
     1     1     2 2   
     2     2     3 1   
     3     2    10 1   
     4     3     4 2   
     5     3    27 1   
     6     4     5 1   
     7     4    28 1   
     8     5     6 1   
     9     5     7 1   
    10     5    11 1   
    11     6    29 1   
    12     6    30 1   
    13     6    31 1   
    14     7     8 1   
    15     7    19 1   
    16     7    32 1   
    17     8     9 1   
    18     8    33 1   
    19     8    34 1   
    20     9    21 1   
    21     9    35 1   
    22     9    36 1   
    23    10    11 2   
    24    10    37 1   
    25    11    12 1   
    26    12    13 1   
    27    12    18 1   
    28    12    38 1   
    29    13    14 1   
    30    14    15 1   
    31    14    39 1   
    32    14    40 1   
    33    15    16 3   
    34    16    17 1   
    35    17    41 1   
    36    17    42 1   
    37    17    43 1   
    38    18    19 1   
    39    18    44 1   
    40    18    45 1   
    41    19    20 1   
    42    19    46 1   
    43    20    21 1   
    44    20    23 1   
    45    20    47 1   
    46    21    22 1   
    47    21    25 1   
    48    22    48 1   
    49    22    49 1   
    50    22    50 1   
    51    23    24 1   
    52    23    51 1   
    53    23    52 1   
    54    24    25 1   
    55    24    53 1   
    56    24    54 1   
    57    25    26 2   
@<TRIPOS>SUBSTRUCTURE
     1 G29         1 TEMP              0 ****  ****    0 ROOT
