@<TRIPOS>MOLECULE
G29
   54    57     1     0     0
SMALL
No Charge or Current Charge


@<TRIPOS>ATOM
      1 O1          -4.0600    -3.6960     0.8350 o          1 G29      -0.523100
      2 C3          -3.1440    -2.9910     0.4380 c          1 G29       0.565500
      3 C2          -2.3110    -3.3530    -0.7290 ce         1 G29      -0.297200
      4 C1          -1.3080    -2.5740    -1.1920 c2         1 G29      -0.148200
      5 C10         -0.9400    -1.2050    -0.6000 c6         1 G29       0.013400
      6 C19         -1.3500    -0.1760    -1.7040 c3         1 G29      -0.076100
      7 C9           0.5990    -1.1450    -0.2440 c6         1 G29      -0.039700
      8 C11          1.5510    -1.3990    -1.4700 c6         1 G29      -0.073400
      9 C12          3.0630    -1.3200    -1.1020 c6         1 G29      -0.051400
     10 C4          -2.7670    -1.7260     1.1070 ce         1 G29      -0.291200
     11 C5          -1.7720    -0.9110     0.6760 c2         1 G29      -0.081400
     12 C6          -1.3910     0.3290     1.4950 c6         1 G29       0.204500
     13 O           -1.7960     1.5510     0.8480 os         1 G29      -0.444000
     14 C23         -3.2090     1.7500     0.6720 c3         1 G29       0.248700
     15 C24         -3.4120     3.0190    -0.0340 c1         1 G29      -0.154100
     16 C25         -3.5700     4.0530    -0.6420 c1         1 G29      -0.108100
     17 C26         -3.7310     5.3010    -1.3960 c3         1 G29      -0.009000
     18 C7           0.1210     0.3500     1.7930 c6         1 G29      -0.065400
     19 C8           0.9790     0.1840     0.5110 c6         1 G29      -0.042700
     20 C14          2.4950     0.1660     0.8540 c5         1 G29      -0.061700
     21 C13          3.4120     0.0230    -0.3970 c5         1 G29      -0.155000
     22 C18          3.3280     1.1900    -1.4430 c3         1 G29      -0.080100
     23 C15          3.1190     1.3750     1.6170 c5         1 G29      -0.067400
     24 C16          4.6520     1.1960     1.3410 c5         1 G29      -0.191400
     25 C17          4.7850     0.0630     0.3050 c          1 G29       0.581100
     26 O2           5.6560    -0.7980     0.2840 o          1 G29      -0.510100
     27 H1          -2.5570    -4.3000    -1.2050 ha         1 G29       0.201000
     28 H2          -0.7520    -2.8950    -2.0740 ha         1 G29       0.180000
     29 H3          -2.4380    -0.1590    -1.8360 hc         1 G29       0.046033
     30 H4          -1.0330     0.8460    -1.4760 hc         1 G29       0.046033
     31 H5          -0.9190    -0.4320    -2.6790 hc         1 G29       0.046033
     32 H6           0.7800    -1.9710     0.4600 hc         1 G29       0.050700
     33 H7           1.3700    -2.3950    -1.8920 hc         1 G29       0.044200
     34 H8           1.3360    -0.6900    -2.2790 hc         1 G29       0.044200
     35 H9           3.3090    -2.1610    -0.4380 hc         1 G29       0.052700
     36 H10          3.6790    -1.4540    -2.0020 hc         1 G29       0.052700
     37 H11         -3.3360    -1.4970     2.0060 ha         1 G29       0.195000
     38 H12         -1.9070     0.2890     2.4660 h1         1 G29       0.044700
     39 H13         -3.6530     0.9400     0.0790 h1         1 G29       0.042700
     40 H14         -3.7210     1.7900     1.6420 h1         1 G29       0.042700
     41 H15         -4.7770     5.6270    -1.3740 hc         1 G29       0.053700
     42 H16         -3.1090     6.0920    -0.9600 hc         1 G29       0.053700
     43 H17         -3.4310     5.1560    -2.4400 hc         1 G29       0.053700
     44 H18          0.3720     1.2890     2.3030 hc         1 G29       0.056700
     45 H19          0.3540    -0.4570     2.5010 hc         1 G29       0.056700
     46 H20          0.7860     1.0440    -0.1420 hc         1 G29       0.071700
     47 H21          2.6130    -0.7230     1.4890 hc         1 G29       0.047700
     48 H22          2.3300     1.2930    -1.8800 hc         1 G29       0.042033
     49 H23          3.5800     2.1660    -1.0140 hc         1 G29       0.042033
     50 H24          4.0270     1.0200    -2.2710 hc         1 G29       0.042033
     51 H25          2.7480     2.3320     1.2320 hc         1 G29       0.051200
     52 H26          2.8870     1.3500     2.6890 hc         1 G29       0.051200
     53 H27          5.0300     2.1170     0.8830 hc         1 G29       0.072700
     54 H28          5.2560     0.9760     2.2280 hc         1 G29       0.072700
@<TRIPOS>BOND
     1     1     2 2   
     2     2     3 1   
     3     2    10 1   
     4     3     4 2   
     5     3    27 1   
     6     4     5 1   
     7     4    28 1   
     8     5     6 1   
     9     5     7 1   
    10     5    11 1   
    11     6    29 1   
    12     6    30 1   
    13     6    31 1   
    14     7     8 1   
    15     7    19 1   
    16     7    32 1   
    17     8     9 1   
    18     8    33 1   
    19     8    34 1   
    20     9    21 1   
    21     9    35 1   
    22     9    36 1   
    23    10    11 2   
    24    10    37 1   
    25    11    12 1   
    26    12    13 1   
    27    12    18 1   
    28    12    38 1   
    29    13    14 1   
    30    14    15 1   
    31    14    39 1   
    32    14    40 1   
    33    15    16 3   
    34    16    17 1   
    35    17    41 1   
    36    17    42 1   
    37    17    43 1   
    38    18    19 1   
    39    18    44 1   
    40    18    45 1   
    41    19    20 1   
    42    19    46 1   
    43    20    21 1   
    44    20    23 1   
    45    20    47 1   
    46    21    22 1   
    47    21    25 1   
    48    22    48 1   
    49    22    49 1   
    50    22    50 1   
    51    23    24 1   
    52    23    51 1   
    53    23    52 1   
    54    24    25 1   
    55    24    53 1   
    56    24    54 1   
    57    25    26 2   
@<TRIPOS>SUBSTRUCTURE
     1 G29         1 TEMP              0 ****  ****    0 ROOT
