@<TRIPOS>MOLECULE
G2A
   73    72     1     0     0
SMALL
bcc


@<TRIPOS>ATOM
      1 C01         -8.2060    -0.4000    -0.4060 c          1 G2A       0.645100
      2 O01         -8.2570    -1.5490    -0.7680 o          1 G2A      -0.552000
      3 C02         -6.9370     0.3820    -0.1960 c3         1 G2A      -0.137400
      4 C03         -5.6740    -0.4520    -0.3400 c3         1 G2A      -0.067400
      5 O03         -9.2770     0.3440    -0.1580 os         1 G2A      -0.401900
      6 C04         -4.4140     0.3840    -0.1570 c3         1 G2A      -0.076400
      7 C05         -3.1380    -0.4390    -0.2810 c3         1 G2A      -0.074400
      8 C06         -1.8690     0.3890    -0.1220 c3         1 G2A      -0.074400
      9 C07         -0.5950    -0.4400    -0.2220 c3         1 G2A      -0.074400
     10 C08          0.6760     0.3890    -0.0860 c3         1 G2A      -0.074400
     11 C09          1.9490    -0.4450    -0.1540 c3         1 G2A      -0.074400
     12 C10          3.2200     0.3880    -0.0480 c3         1 G2A      -0.074400
     13 C11          4.4940    -0.4480    -0.0790 c3         1 G2A      -0.074400
     14 C12          5.7640     0.3900    -0.0030 c3         1 G2A      -0.074400
     15 C13          7.0390    -0.4440    -0.0050 c3         1 G2A      -0.074400
     16 C14          8.3070     0.3990     0.0450 c3         1 G2A      -0.074400
     17 C15          9.5860    -0.4300     0.0620 c3         1 G2A      -0.074400
     18 C16         10.8500     0.4190     0.0970 c3         1 G2A      -0.074400
     19 C17         12.1320    -0.4050     0.1210 c3         1 G2A      -0.074400
     20 C18         13.3930     0.4490     0.1470 c3         1 G2A      -0.075400
     21 C19         14.6790    -0.3680     0.1720 c3         1 G2A      -0.074400
     22 C20         15.9280     0.5020     0.1930 c3         1 G2A      -0.088100
     23 C23        -10.9610    -1.0970     0.8600 c3         1 G2A       0.134400
     24 CAS        -11.5310     0.9170    -0.6310 c3         1 G2A       0.134400
     25 CBA        -10.5840    -0.2240    -0.3260 c3         1 G2A       0.158100
     26 O27        -10.7700    -0.4080     2.0690 oh         1 G2A      -0.564800
     27 O26        -11.5920     1.8360     0.4290 oh         1 G2A      -0.564800
     28 H021        -6.9330     1.2090    -0.9130 hc         1 G2A       0.073200
     29 H022        -6.9770     0.8540     0.7910 hc         1 G2A       0.073200
     30 H031        -5.6810    -1.2630     0.3930 hc         1 G2A       0.052700
     31 H032        -5.6540    -0.9260    -1.3250 hc         1 G2A       0.052700
     32 H041        -4.4000     1.1900    -0.8990 hc         1 G2A       0.037700
     33 H042        -4.4360     0.8740     0.8220 hc         1 G2A       0.037700
     34 HBA        -10.6010    -0.8700    -1.2100 h1         1 G2A       0.061700
     35 H051        -3.1480    -1.2360     0.4710 hc         1 G2A       0.039700
     36 H052        -3.1230    -0.9420    -1.2540 hc         1 G2A       0.039700
     37 H061        -1.8520     1.1760    -0.8850 hc         1 G2A       0.037200
     38 H062        -1.8900     0.9060     0.8440 hc         1 G2A       0.037200
     39 H071        -0.6070    -1.2150     0.5530 hc         1 G2A       0.037700
     40 H072        -0.5810    -0.9710    -1.1800 hc         1 G2A       0.037700
     41 H081         0.6980     1.1510    -0.8730 hc         1 G2A       0.036700
     42 H082         0.6530     0.9370     0.8630 hc         1 G2A       0.036700
     43 H091         1.9350    -1.1920     0.6470 hc         1 G2A       0.037700
     44 H092         1.9640    -1.0100    -1.0930 hc         1 G2A       0.037700
     45 H101         3.2450     1.1170    -0.8650 hc         1 G2A       0.036700
     46 H102         3.1960     0.9740     0.8780 hc         1 G2A       0.036700
     47 H111         4.4790    -1.1620     0.7520 hc         1 G2A       0.037700
     48 H112         4.5110    -1.0510    -0.9950 hc         1 G2A       0.037700
     49 H121         5.7870     1.0900    -0.8460 hc         1 G2A       0.036700
     50 H122         5.7380     1.0080     0.9020 hc         1 G2A       0.036700
     51 H131         7.0250    -1.1310     0.8490 hc         1 G2A       0.037200
     52 H132         7.0590    -1.0760    -0.9010 hc         1 G2A       0.037200
     53 H141         8.3260     1.0760    -0.8170 hc         1 G2A       0.036700
     54 H142         8.2800     1.0420     0.9320 hc         1 G2A       0.036700
     55 H151         9.5730    -1.0990     0.9300 hc         1 G2A       0.036700
     56 H152         9.6090    -1.0800    -0.8200 hc         1 G2A       0.036700
     57 H161        10.8640     1.0840    -0.7750 hc         1 G2A       0.036700
     58 H162        10.8240     1.0740     0.9750 hc         1 G2A       0.036700
     59 H171        12.1220    -1.0650     0.9960 hc         1 G2A       0.036700
     60 H172        12.1570    -1.0630    -0.7540 hc         1 G2A       0.036700
     61 H181        13.4020     1.1090    -0.7290 hc         1 G2A       0.036700
     62 H182        13.3670     1.1090     1.0210 hc         1 G2A       0.036700
     63 H191        14.6730    -1.0250     1.0480 hc         1 G2A       0.036700
     64 H192        14.7050    -1.0290    -0.7010 hc         1 G2A       0.036700
     65 H201        15.9740     1.1440    -0.6890 hc         1 G2A       0.031367
     66 H202        15.9420     1.1490     1.0720 hc         1 G2A       0.031367
     67 H203        16.8390    -0.0980     0.2110 hc         1 G2A       0.031367
     68 H231       -12.0050    -1.4040     0.7130 h1         1 G2A       0.025200
     69 H232       -10.3600    -2.0120     0.8240 h1         1 G2A       0.025200
     70 H27        -10.8860    -1.0410     2.7840 ho         1 G2A       0.398000
     71 H26        -12.1180     2.5840     0.1350 ho         1 G2A       0.398000
     72 HAS1       -11.1990     1.3930    -1.5630 h1         1 G2A       0.025200
     73 HAS2       -12.5100     0.4660    -0.8450 h1         1 G2A       0.025200
@<TRIPOS>BOND
     1     1     2 2   
     2     1     3 1   
     3     1     5 1   
     4     3     4 1   
     5     3    28 1   
     6     3    29 1   
     7     4     6 1   
     8     4    30 1   
     9     4    31 1   
    10     5    25 1   
    11     6     7 1   
    12     6    32 1   
    13     6    33 1   
    14     7     8 1   
    15     7    35 1   
    16     7    36 1   
    17     8     9 1   
    18     8    37 1   
    19     8    38 1   
    20     9    10 1   
    21     9    39 1   
    22     9    40 1   
    23    10    11 1   
    24    10    41 1   
    25    10    42 1   
    26    11    12 1   
    27    11    43 1   
    28    11    44 1   
    29    12    13 1   
    30    12    45 1   
    31    12    46 1   
    32    13    14 1   
    33    13    47 1   
    34    13    48 1   
    35    14    15 1   
    36    14    49 1   
    37    14    50 1   
    38    15    16 1   
    39    15    51 1   
    40    15    52 1   
    41    16    17 1   
    42    16    53 1   
    43    16    54 1   
    44    17    18 1   
    45    17    55 1   
    46    17    56 1   
    47    18    19 1   
    48    18    57 1   
    49    18    58 1   
    50    19    20 1   
    51    19    59 1   
    52    19    60 1   
    53    20    21 1   
    54    20    61 1   
    55    20    62 1   
    56    21    22 1   
    57    21    63 1   
    58    21    64 1   
    59    22    65 1   
    60    22    66 1   
    61    22    67 1   
    62    23    25 1   
    63    23    26 1   
    64    23    68 1   
    65    23    69 1   
    66    24    25 1   
    67    24    27 1   
    68    24    72 1   
    69    24    73 1   
    70    25    34 1   
    71    26    70 1   
    72    27    71 1   
@<TRIPOS>SUBSTRUCTURE
     1 G2A         1 TEMP              0 ****  ****    0 ROOT
