@<TRIPOS>MOLECULE
G2A
   73    72     1     0     0
SMALL
No Charge or Current Charge


@<TRIPOS>ATOM
      1 C01         -8.4900     0.0290    -1.1830 c          1 G2A       0.596100
      2 O01         -8.9410    -0.7830    -1.9800 o          1 G2A      -0.503000
      3 C02         -7.1940     0.8100    -1.4180 c3         1 G2A      -0.137400
      4 C03         -5.9600    -0.0110    -0.9770 c3         1 G2A      -0.067400
      5 O03         -9.1040     0.4050    -0.0180 os         1 G2A      -0.425100
      6 C04         -4.6270     0.7410    -1.1860 c3         1 G2A      -0.076400
      7 C05         -3.3950    -0.0790    -0.7470 c3         1 G2A      -0.074400
      8 C06         -2.0620     0.6730    -0.9570 c3         1 G2A      -0.074400
      9 C07         -0.8300    -0.1470    -0.5180 c3         1 G2A      -0.074400
     10 C08          0.5030     0.6040    -0.7290 c3         1 G2A      -0.074400
     11 C09          1.7360    -0.2160    -0.2900 c3         1 G2A      -0.074400
     12 C10          3.0680     0.5360    -0.5010 c3         1 G2A      -0.074400
     13 C11          4.3010    -0.2850    -0.0630 c3         1 G2A      -0.074400
     14 C12          5.6330     0.4670    -0.2740 c3         1 G2A      -0.074400
     15 C13          6.8660    -0.3530     0.1640 c3         1 G2A      -0.074400
     16 C14          8.1990     0.3990    -0.0470 c3         1 G2A      -0.074400
     17 C15          9.4320    -0.4220     0.3910 c3         1 G2A      -0.074400
     18 C16         10.7640     0.3300     0.1800 c3         1 G2A      -0.074400
     19 C17         11.9970    -0.4900     0.6180 c3         1 G2A      -0.074400
     20 C18         13.3290     0.2620     0.4070 c3         1 G2A      -0.075400
     21 C19         14.5630    -0.5580     0.8450 c3         1 G2A      -0.074400
     22 C20         15.8920     0.1920     0.6350 c3         1 G2A      -0.088100
     23 C23        -10.0130    -1.7600     0.8010 c3         1 G2A       0.157600
     24 CAS        -11.0100     0.5630     1.5100 c3         1 G2A       0.157600
     25 CBA        -10.3180    -0.2780     0.3920 c3         1 G2A       0.181300
     26 O27         -8.8240    -1.8980     1.6020 oh         1 G2A      -0.627000
     27 O26        -10.1590     0.8100     2.6460 oh         1 G2A      -0.627000
     28 H021        -7.1050     1.0470    -2.4850 hc         1 G2A       0.073200
     29 H022        -7.2120     1.7270    -0.8180 hc         1 G2A       0.073200
     30 H031        -6.0640    -0.2740     0.0840 hc         1 G2A       0.052700
     31 H032        -5.9350    -0.9540    -1.5380 hc         1 G2A       0.052700
     32 H041        -4.5250     1.0040    -2.2470 hc         1 G2A       0.037700
     33 H042        -4.6520     1.6830    -0.6240 hc         1 G2A       0.037700
     34 HBA        -11.0280    -0.3100    -0.4450 h1         1 G2A       0.061700
     35 H051        -3.4970    -0.3420     0.3140 hc         1 G2A       0.039700
     36 H052        -3.3690    -1.0210    -1.3090 hc         1 G2A       0.039700
     37 H061        -1.9610     0.9360    -2.0170 hc         1 G2A       0.037200
     38 H062        -2.0870     1.6140    -0.3940 hc         1 G2A       0.037200
     39 H071        -0.9310    -0.4100     0.5430 hc         1 G2A       0.037700
     40 H072        -0.8050    -1.0890    -1.0800 hc         1 G2A       0.037700
     41 H081         0.6040     0.8680    -1.7890 hc         1 G2A       0.036700
     42 H082         0.4780     1.5460    -0.1660 hc         1 G2A       0.036700
     43 H091         1.6350    -0.4790     0.7710 hc         1 G2A       0.037700
     44 H092         1.7600    -1.1580    -0.8530 hc         1 G2A       0.037700
     45 H101         3.1690     0.7990    -1.5610 hc         1 G2A       0.036700
     46 H102         3.0430     1.4770     0.0620 hc         1 G2A       0.036700
     47 H111         4.2000    -0.5480     0.9980 hc         1 G2A       0.037700
     48 H112         4.3260    -1.2260    -0.6250 hc         1 G2A       0.037700
     49 H121         5.7340     0.7300    -1.3340 hc         1 G2A       0.036700
     50 H122         5.6090     1.4090     0.2890 hc         1 G2A       0.036700
     51 H131         6.7660    -0.6160     1.2240 hc         1 G2A       0.037200
     52 H132         6.8910    -1.2950    -0.3990 hc         1 G2A       0.037200
     53 H141         8.2990     0.6620    -1.1080 hc         1 G2A       0.036700
     54 H142         8.1740     1.3400     0.5160 hc         1 G2A       0.036700
     55 H151         9.3310    -0.6850     1.4510 hc         1 G2A       0.036700
     56 H152         9.4560    -1.3630    -0.1720 hc         1 G2A       0.036700
     57 H161        10.8650     0.5940    -0.8810 hc         1 G2A       0.036700
     58 H162        10.7390     1.2710     0.7430 hc         1 G2A       0.036700
     59 H171        11.8960    -0.7540     1.6780 hc         1 G2A       0.036700
     60 H172        12.0220    -1.4320     0.0540 hc         1 G2A       0.036700
     61 H181        13.4310     0.5250    -0.6530 hc         1 G2A       0.036700
     62 H182        13.3050     1.2030     0.9700 hc         1 G2A       0.036700
     63 H191        14.4660    -0.8230     1.9050 hc         1 G2A       0.036700
     64 H192        14.5920    -1.5000     0.2820 hc         1 G2A       0.036700
     65 H201        16.0350     0.4390    -0.4240 hc         1 G2A       0.031367
     66 H202        15.9080     1.1230     1.2150 hc         1 G2A       0.031367
     67 H203        16.7360    -0.4290     0.9590 hc         1 G2A       0.031367
     68 H231       -10.8810    -2.1590     1.3430 h1         1 G2A       0.025200
     69 H232        -9.9120    -2.3620    -0.1120 h1         1 G2A       0.025200
     70 H27         -8.7490    -2.8470     1.8450 ho         1 G2A       0.437000
     71 H26        -10.6670     1.3770     3.2670 ho         1 G2A       0.437000
     72 HAS1       -11.3290     1.5180     1.0730 h1         1 G2A       0.025200
     73 HAS2       -11.9200     0.0380     1.8300 h1         1 G2A       0.025200
@<TRIPOS>BOND
     1     1     2 2   
     2     1     3 1   
     3     1     5 1   
     4     3     4 1   
     5     3    28 1   
     6     3    29 1   
     7     4     6 1   
     8     4    30 1   
     9     4    31 1   
    10     5    25 1   
    11     6     7 1   
    12     6    32 1   
    13     6    33 1   
    14     7     8 1   
    15     7    35 1   
    16     7    36 1   
    17     8     9 1   
    18     8    37 1   
    19     8    38 1   
    20     9    10 1   
    21     9    39 1   
    22     9    40 1   
    23    10    11 1   
    24    10    41 1   
    25    10    42 1   
    26    11    12 1   
    27    11    43 1   
    28    11    44 1   
    29    12    13 1   
    30    12    45 1   
    31    12    46 1   
    32    13    14 1   
    33    13    47 1   
    34    13    48 1   
    35    14    15 1   
    36    14    49 1   
    37    14    50 1   
    38    15    16 1   
    39    15    51 1   
    40    15    52 1   
    41    16    17 1   
    42    16    53 1   
    43    16    54 1   
    44    17    18 1   
    45    17    55 1   
    46    17    56 1   
    47    18    19 1   
    48    18    57 1   
    49    18    58 1   
    50    19    20 1   
    51    19    59 1   
    52    19    60 1   
    53    20    21 1   
    54    20    61 1   
    55    20    62 1   
    56    21    22 1   
    57    21    63 1   
    58    21    64 1   
    59    22    65 1   
    60    22    66 1   
    61    22    67 1   
    62    23    25 1   
    63    23    26 1   
    64    23    68 1   
    65    23    69 1   
    66    24    25 1   
    67    24    27 1   
    68    24    72 1   
    69    24    73 1   
    70    25    34 1   
    71    26    70 1   
    72    27    71 1   
@<TRIPOS>SUBSTRUCTURE
     1 G2A         1 TEMP              0 ****  ****    0 ROOT
