@<TRIPOS>MOLECULE
G2B
   23    22     1     0     0
SMALL
abcg2


@<TRIPOS>ATOM
      1 N1          -7.8750    53.0410    13.6040 n8         1 G2B      -1.005200
      2 C2          -9.7980    54.4540    14.3490 c3         1 G2B       0.087000
      3 N2          -8.9240    55.5140    14.7890 ns         1 G2B      -0.536900
      4 CA          -9.1830    53.5780    13.2500 c3         1 G2B       0.100500
      5 C           -8.7830    56.6750    14.1050 c          1 G2B       0.635100
      6 O           -9.4240    56.9270    13.0880 o          1 G2B      -0.637100
      7 CB         -10.0960    52.4200    12.8320 c3         1 G2B       0.184300
      8 CG         -11.4910    52.8600    12.4290 c3         1 G2B      -0.092100
      9 OG1        -10.2260    51.4590    13.8670 oh         1 G2B      -0.670000
     10 H1          -7.1830    53.7800    13.5910 hn         1 G2B       0.392500
     11 H2          -7.8840    52.6980    14.5590 hn         1 G2B       0.392500
     12 H4         -10.7430    54.8840    14.0160 h1         1 G2B       0.065700
     13 H5         -10.0230    53.8370    15.2220 h1         1 G2B       0.065700
     14 H6          -8.3630    55.3560    15.6080 hn         1 G2B       0.305500
     15 H7          -9.0460    54.2000    12.3600 h1         1 G2B       0.079700
     16 H9          -9.6180    51.9580    11.9570 h1         1 G2B       0.042700
     17 H10        -12.0460    52.0310    11.9890 hc         1 G2B       0.045700
     18 H11        -12.0670    53.2320    13.2770 hc         1 G2B       0.045700
     19 H12        -11.4370    53.6560    11.6850 hc         1 G2B       0.045700
     20 H13         -9.3720    51.0260    13.9720 ho         1 G2B       0.447000
     21 N3          -7.9150    57.5720    14.6610 nt         1 G2B      -0.594000
     22 H3          -7.6120    58.3240    14.0660 hn         1 G2B       0.299500
     23 H8          -7.2170    57.2510    15.3120 hn         1 G2B       0.299500
@<TRIPOS>BOND
     1     1     4 1   
     2     1    10 1   
     3     1    11 1   
     4     2     3 1   
     5     2     4 1   
     6     2    12 1   
     7     2    13 1   
     8     3     5 1   
     9     3    14 1   
    10     4     7 1   
    11     4    15 1   
    12     5     6 2   
    13     5    21 1   
    14     7     8 1   
    15     7     9 1   
    16     7    16 1   
    17     8    17 1   
    18     8    18 1   
    19     8    19 1   
    20     9    20 1   
    21    21    22 1   
    22    21    23 1   
@<TRIPOS>SUBSTRUCTURE
     1 G2B         1 TEMP              0 ****  ****    0 ROOT
