@<TRIPOS>MOLECULE
G2B
   23    22     1     0     0
SMALL
No Charge or Current Charge


@<TRIPOS>ATOM
      1 N1          -7.9310    52.9930    13.7760 n8         1 G2B      -1.005200
      2 C2          -9.8760    54.4620    14.3360 c3         1 G2B       0.087000
      3 N2          -8.9910    55.5290    14.8320 ns         1 G2B      -0.536900
      4 CA          -9.2110    53.5640    13.2480 c3         1 G2B       0.100500
      5 C           -8.6480    56.6410    14.1190 c          1 G2B       0.635100
      6 O           -9.0430    56.8880    12.9960 o          1 G2B      -0.637100
      7 CB         -10.1220    52.4000    12.7440 c3         1 G2B       0.184300
      8 CG         -11.5900    52.7700    12.4400 c3         1 G2B      -0.092100
      9 OG1        -10.0540    51.3770    13.7330 oh         1 G2B      -0.670000
     10 H1          -7.3150    52.7550    12.9880 hn         1 G2B       0.392500
     11 H2          -7.4190    53.7450    14.2530 hn         1 G2B       0.392500
     12 H4         -10.7800    54.9310    13.9250 h1         1 G2B       0.065700
     13 H5         -10.1820    53.8390    15.1870 h1         1 G2B       0.065700
     14 H6          -8.6080    55.4420    15.7640 hn         1 G2B       0.305500
     15 H7          -8.9780    54.2120    12.3900 h1         1 G2B       0.079700
     16 H9          -9.6780    52.0250    11.8120 h1         1 G2B       0.042700
     17 H10        -12.1120    51.9150    11.9950 hc         1 G2B       0.045700
     18 H11        -12.1290    53.0560    13.3510 hc         1 G2B       0.045700
     19 H12        -11.6370    53.6040    11.7300 hc         1 G2B       0.045700
     20 H13         -9.1750    51.5820    14.1450 ho         1 G2B       0.447000
     21 N3          -7.8210    57.4610    14.7800 nt         1 G2B      -0.594000
     22 H3          -7.5140    58.3110    14.3330 hn         1 G2B       0.299500
     23 H8          -7.5110    57.2330    15.7120 hn         1 G2B       0.299500
@<TRIPOS>BOND
     1     1     4 1   
     2     1    10 1   
     3     1    11 1   
     4     2     3 1   
     5     2     4 1   
     6     2    12 1   
     7     2    13 1   
     8     3     5 1   
     9     3    14 1   
    10     4     7 1   
    11     4    15 1   
    12     5     6 2   
    13     5    21 1   
    14     7     8 1   
    15     7     9 1   
    16     7    16 1   
    17     8    17 1   
    18     8    18 1   
    19     8    19 1   
    20     9    20 1   
    21    21    22 1   
    22    21    23 1   
@<TRIPOS>SUBSTRUCTURE
     1 G2B         1 TEMP              0 ****  ****    0 ROOT
