@<TRIPOS>MOLECULE
G2C
   45    47     1     0     0
SMALL
bcc


@<TRIPOS>ATOM
      1 N1          -7.7420     1.1930    -1.2050 ns         1 G2C      -0.526400
      2 C2          -7.7380     0.6590     0.0510 cc         1 G2C       0.644800
      3 N2          -8.9280     0.5230     0.6580 nv         1 G2C      -0.955800
      4 N3          -6.6410     0.3180     0.6780 nd         1 G2C      -0.675100
      5 C4          -5.5270     0.5470    -0.0360 cd         1 G2C       0.046800
      6 C5          -5.4240     1.0920    -1.3030 cc         1 G2C       0.168800
      7 C6          -6.6150     1.4610    -1.9920 c          1 G2C       0.661000
      8 O6          -6.7370     1.9470    -3.1040 o          1 G2C      -0.639500
      9 N7          -4.1120     1.1920    -1.6810 nc         1 G2C      -0.618000
     10 C8          -3.4380     0.7190    -0.6730 cd         1 G2C       0.483400
     11 N9          -4.2490     0.2930     0.3520 na         1 G2C      -0.223900
     12 PA           0.6940    -0.4790    -0.7020 p5         1 G2C       1.458800
     13 PB           3.2900     0.8420    -0.4380 p5         1 G2C       1.352600
     14 PG           6.4190     0.2850    -0.7630 p5         1 G2C       1.160700
     15 C1          -3.8280    -0.2130     1.6670 c5         1 G2C       0.270800
     16 O1A         -0.1100     0.7700    -0.9330 o          1 G2C      -0.864500
     17 O1B          3.3580     2.0070     0.5010 o          1 G2C      -0.842500
     18 CL1B         4.8100    -0.5540     1.6620 cl         1 G2C      -0.296900
     19 O1G          7.3970    -0.7100    -0.1540 o          1 G2C      -0.921167
     20 C7          -4.4280    -1.5710     1.9890 c5         1 G2C      -0.165400
     21 O2A          0.9130    -1.4320    -1.8350 o          1 G2C      -0.864500
     22 O2B          3.1270     1.0460    -1.9120 o          1 G2C      -0.842500
     23 CL2B         4.3460    -1.8950    -0.8550 cl         1 G2C      -0.296900
     24 O2G          6.2810     0.1970    -2.2760 o          1 G2C      -0.921167
     25 C3          -3.4400    -2.5210     1.3220 c5         1 G2C       0.095100
     26 O3          -3.3540    -3.7970     1.8970 oh         1 G2C      -0.579800
     27 O3A          2.0580    -0.1310     0.1130 os         1 G2C      -0.695800
     28 C3B          4.7160    -0.2980    -0.1220 c3         1 G2C       0.042400
     29 O3G          6.5120     1.7020    -0.2080 o          1 G2C      -0.921167
     30 C9          -2.1140    -1.7810     1.5030 c5         1 G2C       0.119100
     31 O4          -2.4470    -0.4000     1.6550 os         1 G2C      -0.344600
     32 C10         -1.1720    -1.9870     0.3400 c3         1 G2C       0.212400
     33 O5           0.0420    -1.3130     0.5710 os         1 G2C      -0.518200
     34 HN1         -8.6340     1.4270    -1.6240 hn         1 G2C       0.287500
     35 HN2         -9.7820     0.5610     0.1270 hn         1 G2C       0.415800
     36 HN2A        -8.9560    -0.0200     1.5040 hn         1 G2C       0.415800
     37 H8          -2.3580     0.6660    -0.6210 h5         1 G2C       0.173100
     38 H1          -4.0820     0.5490     2.4070 h2         1 G2C       0.074700
     39 H2          -4.3970    -1.7150     3.0720 hc         1 G2C       0.054200
     40 H2'A        -5.4580    -1.6890     1.6590 hc         1 G2C       0.054200
     41 H3          -3.6730    -2.5960     0.2500 h1         1 G2C       0.050700
     42 HO3         -4.1060    -4.3140     1.5950 ho         1 G2C       0.377000
     43 H4          -1.6380    -2.1200     2.4310 h1         1 G2C       0.079700
     44 H5          -0.9960    -3.0650     0.2320 h1         1 G2C       0.008700
     45 H5'A        -1.6690    -1.6590    -0.5810 h1         1 G2C       0.008700
@<TRIPOS>BOND
     1     1     2 1   
     2     1     7 1   
     3     1    34 1   
     4     2     3 1   
     5     2     4 2   
     6     3    35 1   
     7     3    36 1   
     8     4     5 1   
     9     5     6 2   
    10     5    11 1   
    11     6     7 1   
    12     6     9 1   
    13     7     8 2   
    14     9    10 2   
    15    10    11 1   
    16    10    37 1   
    17    11    15 1   
    18    12    16 1   
    19    12    21 1   
    20    12    27 1   
    21    12    33 1   
    22    13    17 1   
    23    13    22 1   
    24    13    27 1   
    25    13    28 1   
    26    14    19 1   
    27    14    24 1   
    28    14    28 1   
    29    14    29 1   
    30    15    20 1   
    31    15    31 1   
    32    15    38 1   
    33    18    28 1   
    34    20    25 1   
    35    20    39 1   
    36    20    40 1   
    37    23    28 1   
    38    25    26 1   
    39    25    30 1   
    40    25    41 1   
    41    26    42 1   
    42    30    31 1   
    43    30    32 1   
    44    30    43 1   
    45    32    33 1   
    46    32    44 1   
    47    32    45 1   
@<TRIPOS>SUBSTRUCTURE
     1 G2C         1 TEMP              0 ****  ****    0 ROOT
