@<TRIPOS>MOLECULE
G2C
   45    47     1     0     0
SMALL
No Charge or Current Charge


@<TRIPOS>ATOM
      1 N1          -6.2380     2.9000    -0.4790 ns         1 G2C      -0.459400
      2 C2          -5.9150     2.2740     0.6770 cc         1 G2C       0.644800
      3 N2          -6.6020     2.6520     1.7430 nv         1 G2C      -1.066200
      4 N3          -5.0090     1.3370     0.8530 nd         1 G2C      -0.675100
      5 C4          -4.3440     0.9970    -0.3270 cd         1 G2C       0.061400
      6 C5          -4.5950     1.5830    -1.5400 cc         1 G2C       0.103500
      7 C6          -5.6340     2.6380    -1.6710 c          1 G2C       0.518500
      8 O6          -5.9440     3.2290    -2.6980 o          1 G2C      -0.564000
      9 N7          -3.7710     1.0630    -2.5100 nc         1 G2C      -0.618000
     10 C8          -3.0060     0.1600    -1.8810 cd         1 G2C       0.483400
     11 N9          -3.3480     0.0670    -0.5320 na         1 G2C      -0.202500
     12 PA           1.1750    -2.8960    -0.9580 p5         1 G2C       1.458800
     13 PB           1.4200    -0.2560    -0.7590 p5         1 G2C       1.510400
     14 PG           2.7430     2.0810     0.0520 p5         1 G2C       1.318500
     15 C1          -2.7120    -0.8000     0.4560 c5         1 G2C       0.323300
     16 O1A          0.4410    -2.7950    -2.2530 o          1 G2C      -0.864500
     17 O1B          0.1770     0.2520    -1.4290 o          1 G2C      -0.842500
     18 Cl1B         0.2210     1.2640     1.7070 cl         1 G2C      -0.373500
     19 O1G          2.8380     3.1640     1.0820 o          1 G2C      -0.921167
     20 C7          -3.6390    -1.6100     1.4180 c5         1 G2C      -0.165400
     21 O2A          2.5830    -3.3620    -1.1400 o          1 G2C      -0.864500
     22 O2B          2.5800    -0.3800    -1.7020 o          1 G2C      -0.842500
     23 Cl2B         2.7230    -0.2340     2.1210 cl         1 G2C      -0.373500
     24 O2G          4.1510     1.6650    -0.2320 o          1 G2C      -0.921167
     25 C3          -3.0670    -3.0580     1.3550 c5         1 G2C       0.118300
     26 O3          -3.0510    -3.6800     2.6410 oh         1 G2C      -0.702000
     27 O3A          1.0900    -1.6280    -0.0300 os         1 G2C      -0.695800
     28 C3B          1.7590     0.6960     0.8200 c3         1 G2C      -0.120000
     29 O3G          2.1120     2.6760    -1.1630 o          1 G2C      -0.921167
     30 C9          -1.6480    -2.8100     0.7690 c5         1 G2C       0.142300
     31 O4          -1.9390    -1.8060    -0.2130 os         1 G2C      -0.391000
     32 C10         -0.9970    -4.0620     0.1170 c3         1 G2C       0.235600
     33 O5           0.4340    -3.9380     0.0290 os         1 G2C      -0.541400
     34 HN1         -6.9450     3.6170    -0.4740 hn         1 G2C       0.287500
     35 HN2         -7.5290     3.0290     1.5860 hn         1 G2C       0.471000
     36 HN2A        -6.4980     2.0490     2.5500 hn         1 G2C       0.471000
     37 H8          -2.2200    -0.4470    -2.3210 h5         1 G2C       0.173100
     38 H1          -2.0440    -0.1570     1.0400 h2         1 G2C       0.074700
     39 H2          -3.5990    -1.1850     2.4270 hc         1 G2C       0.054200
     40 H2'A        -4.6880    -1.5880     1.1000 hc         1 G2C       0.054200
     41 H3          -3.6540    -3.6620     0.6470 h1         1 G2C       0.050700
     42 HO3         -3.9860    -3.7320     2.9480 ho         1 G2C       0.476000
     43 H4          -0.9730    -2.3990     1.5320 h1         1 G2C       0.079700
     44 H5          -1.2370    -4.9360     0.7350 h1         1 G2C       0.008700
     45 H5'A        -1.4390    -4.2350    -0.8730 h1         1 G2C       0.008700
@<TRIPOS>BOND
     1     1     2 1   
     2     1     7 1   
     3     1    34 1   
     4     2     3 1   
     5     2     4 2   
     6     3    35 1   
     7     3    36 1   
     8     4     5 1   
     9     5     6 2   
    10     5    11 1   
    11     6     7 1   
    12     6     9 1   
    13     7     8 2   
    14     9    10 2   
    15    10    11 1   
    16    10    37 1   
    17    11    15 1   
    18    12    16 1   
    19    12    21 1   
    20    12    27 1   
    21    12    33 1   
    22    13    17 1   
    23    13    22 1   
    24    13    27 1   
    25    13    28 1   
    26    14    19 1   
    27    14    24 1   
    28    14    28 1   
    29    14    29 1   
    30    15    20 1   
    31    15    31 1   
    32    15    38 1   
    33    18    28 1   
    34    20    25 1   
    35    20    39 1   
    36    20    40 1   
    37    23    28 1   
    38    25    26 1   
    39    25    30 1   
    40    25    41 1   
    41    26    42 1   
    42    30    31 1   
    43    30    32 1   
    44    30    43 1   
    45    32    33 1   
    46    32    44 1   
    47    32    45 1   
@<TRIPOS>SUBSTRUCTURE
     1 G2C         1 TEMP              0 ****  ****    0 ROOT
