@<TRIPOS>MOLECULE
G2D
   54    58     1     0     0
SMALL
No Charge or Current Charge


@<TRIPOS>ATOM
      1 C05         -4.2970    -1.2310    -1.9590 ca         1 G2D      -0.091000
      2 C06         -5.5080    -1.6160    -1.3570 ca         1 G2D      -0.087300
      3 C13         -0.4000     1.8280     0.9630 c5         1 G2D       0.164000
      4 C18          2.3140     2.9750    -1.3120 ca         1 G2D      -0.105000
      5 C17          1.1260     2.8460    -0.5790 ca         1 G2D      -0.080300
      6 C16          0.9480     1.7950     0.2950 ca         1 G2D      -0.128300
      7 C15         -0.0740     3.7530    -0.6360 c5         1 G2D      -0.036100
      8 C19          3.3330     2.0190    -1.1400 ca         1 G2D      -0.101000
      9 C20          3.1690     0.9360    -0.2360 ca         1 G2D      -0.104500
     10 C21          4.2140    -0.0860    -0.0580 cc         1 G2D       0.288500
     11 C22          5.4870     0.0620    -0.5700 cd         1 G2D      -0.195000
     12 C24          5.2330    -1.8330     0.5390 cd         1 G2D       0.389800
     13 C11         -4.8050    -0.5000     0.6990 ca         1 G2D      -0.148000
     14 C03         -3.5840    -0.1100     0.1000 ca         1 G2D      -0.114600
     15 C04         -3.3450    -0.4880    -1.2440 ca         1 G2D      -0.120000
     16 C27          7.4170    -1.6680    -0.2710 c5         1 G2D       0.071600
     17 O01         -2.7910     1.0250     2.0660 o          1 G2D      -0.611100
     18 C07         -6.5290    -2.4230    -2.1530 c3         1 G2D      -0.036800
     19 C08         -5.7650    -1.2490    -0.0200 ca         1 G2D       0.129100
     20 O09         -6.9650    -1.6400     0.5490 os         1 G2D      -0.344100
     21 C10         -7.3230    -1.3160     1.9040 c3         1 G2D       0.146900
     22 N12         -1.4050     1.0330     0.2540 ns         1 G2D      -0.493900
     23 C14         -0.8170     3.3290     0.6890 c5         1 G2D      -0.098400
     24 N23          6.1060    -1.0980    -0.1570 na         1 G2D      -0.171500
     25 C25          5.8050    -3.1070     1.0650 c5         1 G2D      -0.102700
     26 C26          7.2740    -3.0910     0.4230 c5         1 G2D      -0.099400
     27 N28          4.0490    -1.2600     0.6420 nc         1 G2D      -0.654000
     28 C29          1.9500     0.8270     0.4770 ca         1 G2D      -0.052000
     29 H1          -4.0880    -1.5090    -2.9910 ha         1 G2D       0.115000
     30 H2          -0.3330     1.5970     2.0370 h1         1 G2D       0.089700
     31 H3           2.4450     3.8010    -2.0070 ha         1 G2D       0.113000
     32 H4           0.1890     4.8170    -0.6420 hc         1 G2D       0.053200
     33 H5          -0.6850     3.5540    -1.5240 hc         1 G2D       0.053200
     34 H6           4.2440     2.1260    -1.7210 ha         1 G2D       0.106000
     35 H7           5.9670     0.8450    -1.1430 h4         1 G2D       0.159000
     36 H8          -4.9950    -0.2130     1.7290 ha         1 G2D       0.140000
     37 H9          -2.4250    -0.2140    -1.7530 ha         1 G2D       0.117000
     38 H10          7.7170    -1.7520    -1.3240 h1         1 G2D       0.061200
     39 H11         -6.7270    -3.3880    -1.6720 hc         1 G2D       0.044700
     40 H12         -7.4810    -1.8840    -2.2300 hc         1 G2D       0.044700
     41 H13         -6.1820    -2.6280    -3.1730 hc         1 G2D       0.044700
     42 H14         -8.3130    -1.7240     2.1430 h1         1 G2D       0.042700
     43 H15         -6.6010    -1.7430     2.6120 h1         1 G2D       0.042700
     44 H16         -7.3600    -0.2290     2.0500 h1         1 G2D       0.042700
     45 H17         -1.2920     0.7220    -0.7000 hn         1 G2D       0.318500
     46 H18         -1.9000     3.4860     0.6340 hc         1 G2D       0.059200
     47 H19         -0.4640     3.9550     1.5170 hc         1 G2D       0.059200
     48 H20          5.8390    -3.1090     2.1590 hc         1 G2D       0.072700
     49 H21          7.3800    -3.8910    -0.3190 hc         1 G2D       0.060200
     50 H23          1.7810     0.0040     1.1670 ha         1 G2D       0.142000
     51 H24          8.1490    -1.0360     0.2500 h1         1 G2D       0.061200
     52 H25          5.2270    -3.9820     0.7490 hc         1 G2D       0.072700
     53 H26          8.0520    -3.2540     1.1770 hc         1 G2D       0.060200
     54 C02         -2.5760     0.6950     0.9060 c          1 G2D       0.609700
@<TRIPOS>BOND
     1     1     2 ar  
     2     1    15 ar  
     3     1    29 1   
     4     2    18 1   
     5     2    19 ar  
     6     3     6 1   
     7     3    22 1   
     8     3    23 1   
     9     3    30 1   
    10     4     5 ar  
    11     4     8 ar  
    12     4    31 1   
    13     5     6 ar  
    14     5     7 1   
    15     6    28 ar  
    16     7    23 1   
    17     7    32 1   
    18     7    33 1   
    19     8     9 ar  
    20     8    34 1   
    21     9    10 1   
    22     9    28 ar  
    23    10    11 2   
    24    10    27 1   
    25    11    24 1   
    26    11    35 1   
    27    12    24 1   
    28    12    25 1   
    29    12    27 2   
    30    13    14 ar  
    31    13    19 ar  
    32    13    36 1   
    33    14    15 ar  
    34    14    54 1   
    35    15    37 1   
    36    16    24 1   
    37    16    26 1   
    38    16    38 1   
    39    16    51 1   
    40    17    54 2   
    41    18    39 1   
    42    18    40 1   
    43    18    41 1   
    44    19    20 1   
    45    20    21 1   
    46    21    42 1   
    47    21    43 1   
    48    21    44 1   
    49    22    45 1   
    50    22    54 1   
    51    23    46 1   
    52    23    47 1   
    53    25    26 1   
    54    25    48 1   
    55    25    52 1   
    56    26    49 1   
    57    26    53 1   
    58    28    50 1   
@<TRIPOS>SUBSTRUCTURE
     1 G2D         1 TEMP              0 ****  ****    0 ROOT
