@<TRIPOS>MOLECULE
G2D
   54    58     1     0     0
SMALL
abcg2


@<TRIPOS>ATOM
      1 C05         -3.7830    -1.8360    -1.5520 ca         1 G2D      -0.091000
      2 C06         -5.1280    -1.9240    -1.2280 ca         1 G2D      -0.087300
      3 C13         -0.4280     1.8870     1.1780 c5         1 G2D       0.164000
      4 C18          2.1570     3.1110    -1.1520 ca         1 G2D      -0.105000
      5 C17          1.0230     2.9710    -0.3650 ca         1 G2D      -0.080300
      6 C16          0.8900     1.8520     0.4480 ca         1 G2D      -0.128300
      7 C15         -0.1720     3.8730    -0.2290 c5         1 G2D      -0.036100
      8 C19          3.1400     2.1340    -1.1060 ca         1 G2D      -0.101000
      9 C20          3.0160     1.0060    -0.2850 ca         1 G2D      -0.104500
     10 C21          4.0670    -0.0090    -0.2290 cc         1 G2D       0.288500
     11 C22          5.2990     0.0030    -0.8490 cd         1 G2D      -0.195000
     12 C24          5.0450    -1.8050     0.3570 cd         1 G2D       0.389800
     13 C11         -4.7120    -0.4130     0.6240 ca         1 G2D      -0.148000
     14 C03         -3.3670    -0.3230     0.2630 ca         1 G2D      -0.114600
     15 C04         -2.9010    -1.0480    -0.8240 ca         1 G2D      -0.120000
     16 C27          7.1350    -1.8580    -0.7040 c5         1 G2D       0.071600
     17 O01         -2.7960     0.8580     2.2440 o          1 G2D      -0.611100
     18 C07         -6.0710    -2.7700    -2.0270 c3         1 G2D      -0.036800
     19 C08         -5.5860    -1.1970    -0.1170 ca         1 G2D       0.129100
     20 O09         -6.8980    -1.3210     0.1590 os         1 G2D      -0.344100
     21 C10         -7.4340    -0.6120     1.2580 c3         1 G2D       0.146900
     22 N12         -1.3600     0.9920     0.5130 ns         1 G2D      -0.493900
     23 C14         -0.8260     3.3720     1.0680 c5         1 G2D      -0.098400
     24 N23          5.8980    -1.1490    -0.4470 na         1 G2D      -0.171500
     25 C25          5.6240    -3.1080     0.7880 c5         1 G2D      -0.102700
     26 C26          7.1090    -2.9320     0.4020 c5         1 G2D      -0.099400
     27 N28          3.9250    -1.1530     0.5210 nc         1 G2D      -0.654000
     28 C29          1.8630     0.8690     0.4930 ca         1 G2D      -0.052000
     29 H1          -3.4110    -2.4000    -2.3990 ha         1 G2D       0.115000
     30 H2          -0.3380     1.5690     2.2170 h1         1 G2D       0.089700
     31 H3           2.2850     3.9730    -1.7960 ha         1 G2D       0.113000
     32 H4           0.0940     4.9300    -0.1830 hc         1 G2D       0.053200
     33 H5          -0.8430     3.7540    -1.0860 hc         1 G2D       0.053200
     34 H6           4.0240     2.2560    -1.7200 ha         1 G2D       0.106000
     35 H7           5.7790     0.7150    -1.4970 h4         1 G2D       0.159000
     36 H8          -5.0560     0.1420     1.4850 ha         1 G2D       0.140000
     37 H9          -1.8570    -1.0370    -1.1100 ha         1 G2D       0.117000
     38 H10          7.1200    -2.2910    -1.7060 h1         1 G2D       0.061200
     39 H11         -6.5050    -3.5690    -1.4240 hc         1 G2D       0.044700
     40 H12         -6.9030    -2.1820    -2.4210 hc         1 G2D       0.044700
     41 H13         -5.5570    -3.2280    -2.8700 hc         1 G2D       0.044700
     42 H14         -8.4940    -0.8480     1.2900 h1         1 G2D       0.042700
     43 H15         -6.9760    -0.9150     2.2020 h1         1 G2D       0.042700
     44 H16         -7.3170     0.4690     1.1410 h1         1 G2D       0.042700
     45 H17         -1.2250     0.8340    -0.4720 hn         1 G2D       0.318500
     46 H18         -1.9050     3.5160     1.1000 hc         1 G2D       0.059200
     47 H19         -0.3980     3.9070     1.9190 hc         1 G2D       0.059200
     48 H20          5.4890    -3.3040     1.8510 hc         1 G2D       0.072700
     49 H21          7.5680    -3.8600     0.0700 hc         1 G2D       0.060200
     50 H23          1.7460     0.0050     1.1350 ha         1 G2D       0.142000
     51 H24          7.9950    -1.1940    -0.6290 h1         1 G2D       0.061200
     52 H25          5.1610    -3.9340     0.2410 hc         1 G2D       0.072700
     53 H26          7.6700    -2.5750     1.2660 hc         1 G2D       0.060200
     54 C02         -2.4900     0.5560     1.0970 c          1 G2D       0.609700
@<TRIPOS>BOND
     1     1     2 ar  
     2     1    15 ar  
     3     1    29 1   
     4     2    18 1   
     5     2    19 ar  
     6     3     6 1   
     7     3    22 1   
     8     3    23 1   
     9     3    30 1   
    10     4     5 ar  
    11     4     8 ar  
    12     4    31 1   
    13     5     6 ar  
    14     5     7 1   
    15     6    28 ar  
    16     7    23 1   
    17     7    32 1   
    18     7    33 1   
    19     8     9 ar  
    20     8    34 1   
    21     9    10 1   
    22     9    28 ar  
    23    10    11 2   
    24    10    27 1   
    25    11    24 1   
    26    11    35 1   
    27    12    24 1   
    28    12    25 1   
    29    12    27 2   
    30    13    14 ar  
    31    13    19 ar  
    32    13    36 1   
    33    14    15 ar  
    34    14    54 1   
    35    15    37 1   
    36    16    24 1   
    37    16    26 1   
    38    16    38 1   
    39    16    51 1   
    40    17    54 2   
    41    18    39 1   
    42    18    40 1   
    43    18    41 1   
    44    19    20 1   
    45    20    21 1   
    46    21    42 1   
    47    21    43 1   
    48    21    44 1   
    49    22    45 1   
    50    22    54 1   
    51    23    46 1   
    52    23    47 1   
    53    25    26 1   
    54    25    48 1   
    55    25    52 1   
    56    26    49 1   
    57    26    53 1   
    58    28    50 1   
@<TRIPOS>SUBSTRUCTURE
     1 G2D         1 TEMP              0 ****  ****    0 ROOT
