@<TRIPOS>MOLECULE
G2E
   47    51     1     0     0
SMALL
abcg2


@<TRIPOS>ATOM
      1 C10        135.8770   128.8220   134.0240 c          1 G2E       0.570000
      2 C13        136.9880   126.7030   133.3620 c3         1 G2E       0.107000
      3 C15        132.7150   127.5970   135.5720 ca         1 G2E      -0.048000
      4 C17        134.4570   125.5650   134.6930 ca         1 G2E      -0.145000
      5 C20        132.8410   132.3600   132.4830 ca         1 G2E       0.094100
      6 C21        132.3750   126.2540   135.7340 ca         1 G2E      -0.143000
      7 C22        137.7090   125.4030   131.2980 c3         1 G2E      -0.072400
      8 C24        138.9890   126.1750   130.9940 c3         1 G2E      -0.078400
      9 C26        139.9950   125.3440   130.2120 c3         1 G2E      -0.090100
     10 C06        134.5530   129.2330   134.6870 c5         1 G2E      -0.057400
     11 C07        133.9190   127.9100   134.9800 ca         1 G2E      -0.139300
     12 C08        133.8110   130.1880   133.7940 ca         1 G2E      -0.171300
     13 C09        134.7780   130.1370   135.9210 c5         1 G2E       0.173600
     14 C11        134.7760   126.9020   134.5430 ca         1 G2E      -0.021000
     15 C12        133.9850   131.4630   134.3010 ca         1 G2E       0.146100
     16 C14        133.1370   129.9600   132.5960 ca         1 G2E      -0.024000
     17 C16        136.6150   126.2370   131.9580 c3         1 G2E      -0.099400
     18 C18        133.5010   132.6050   133.6670 ca         1 G2E      -0.121000
     19 C19        132.6580   131.0830   131.9650 ca         1 G2E       0.007100
     20 C23        133.2400   125.2580   135.2990 ca         1 G2E      -0.073000
     21 C25        131.5320   132.5130   130.7050 c5         1 G2E       0.372600
     22 N05        135.9260   127.4620   133.9870 n          1 G2E      -0.217400
     23 O01        134.6720   131.4860   135.4650 os         1 G2E      -0.314100
     24 O02        136.7240   129.5790   133.6060 o          1 G2E      -0.501000
     25 O03        131.9950   131.1760   130.7800 os         1 G2E      -0.342100
     26 O04        132.2960   133.2660   131.6400 os         1 G2E      -0.340100
     27 H1         137.2280   125.8470   133.9980 h1         1 G2E       0.062200
     28 H2         137.8730   127.3380   133.3430 h1         1 G2E       0.062200
     29 H3         132.0460   128.3800   135.9080 ha         1 G2E       0.123000
     30 H4         135.1180   124.7770   134.3570 ha         1 G2E       0.125000
     31 H5         131.4350   125.9870   136.1980 ha         1 G2E       0.119000
     32 H6         137.3150   124.9940   130.3640 hc         1 G2E       0.039700
     33 H7         137.9450   124.5400   131.9300 hc         1 G2E       0.039700
     34 H8         139.4530   126.5200   131.9220 hc         1 G2E       0.041700
     35 H9         138.7370   127.0770   130.4270 hc         1 G2E       0.041700
     36 H10        140.9080   125.9050   130.0090 hc         1 G2E       0.032033
     37 H11        140.2770   124.4440   130.7610 hc         1 G2E       0.032033
     38 H12        139.5820   125.0260   129.2520 hc         1 G2E       0.032033
     39 H13        133.9950   129.9450   136.6610 h1         1 G2E       0.069200
     40 H14        135.7490   129.9980   136.3930 h1         1 G2E       0.069200
     41 H15        133.0070   128.9650   132.1880 ha         1 G2E       0.141000
     42 H16        136.3920   127.1110   131.3400 hc         1 G2E       0.050200
     43 H17        135.6960   125.6470   132.0080 hc         1 G2E       0.050200
     44 H18        133.6370   133.6010   134.0680 ha         1 G2E       0.152000
     45 H19        132.9660   124.2190   135.4300 ha         1 G2E       0.115000
     46 H20        131.6910   132.9050   129.7010 h2         1 G2E       0.065200
     47 H21        130.4700   132.5620   130.9740 h2         1 G2E       0.065200
@<TRIPOS>BOND
     1     1    10 1   
     2     1    22 1   
     3     1    24 2   
     4     2    17 1   
     5     2    22 1   
     6     2    27 1   
     7     2    28 1   
     8     3     6 ar  
     9     3    11 ar  
    10     3    29 1   
    11     4    14 ar  
    12     4    20 ar  
    13     4    30 1   
    14     5    18 ar  
    15     5    19 ar  
    16     5    26 1   
    17     6    20 ar  
    18     6    31 1   
    19     7     8 1   
    20     7    17 1   
    21     7    32 1   
    22     7    33 1   
    23     8     9 1   
    24     8    34 1   
    25     8    35 1   
    26     9    36 1   
    27     9    37 1   
    28     9    38 1   
    29    10    11 1   
    30    10    12 1   
    31    10    13 1   
    32    11    14 ar  
    33    12    15 ar  
    34    12    16 ar  
    35    13    23 1   
    36    13    39 1   
    37    13    40 1   
    38    14    22 1   
    39    15    18 ar  
    40    15    23 1   
    41    16    19 ar  
    42    16    41 1   
    43    17    42 1   
    44    17    43 1   
    45    18    44 1   
    46    19    25 1   
    47    20    45 1   
    48    21    25 1   
    49    21    26 1   
    50    21    46 1   
    51    21    47 1   
@<TRIPOS>SUBSTRUCTURE
     1 G2E         1 TEMP              0 ****  ****    0 ROOT
