@<TRIPOS>MOLECULE
G2E
   47    51     1     0     0
SMALL
No Charge or Current Charge


@<TRIPOS>ATOM
      1 C10        135.9730   128.9160   133.7570 c          1 G2E       0.570000
      2 C13        137.0290   126.6800   133.2310 c3         1 G2E       0.107000
      3 C15        132.7720   127.7690   135.4830 ca         1 G2E      -0.048000
      4 C17        134.3660   125.6350   134.4960 ca         1 G2E      -0.145000
      5 C20        132.4330   132.4770   132.7230 ca         1 G2E       0.094100
      6 C21        132.3490   126.4320   135.6350 ca         1 G2E      -0.143000
      7 C22        137.8810   125.2200   131.2610 c3         1 G2E      -0.072400
      8 C24        139.2690   125.8810   131.0920 c3         1 G2E      -0.078400
      9 C26        140.3180   124.9280   130.4880 c3         1 G2E      -0.090100
     10 C06        134.6560   129.3310   134.4890 c5         1 G2E      -0.057400
     11 C07        134.0030   128.0100   134.8540 ca         1 G2E      -0.139300
     12 C08        133.8060   130.3210   133.7630 ca         1 G2E      -0.171300
     13 C09        134.9680   130.1680   135.7860 c5         1 G2E       0.173600
     14 C11        134.7920   126.9690   134.4080 ca         1 G2E      -0.021000
     15 C12        133.8910   131.5590   134.3770 ca         1 G2E       0.146100
     16 C14        133.0250   130.1240   132.6060 ca         1 G2E      -0.024000
     17 C16        136.7840   126.1710   131.7940 c3         1 G2E      -0.099400
     18 C18        133.2150   132.6820   133.8700 ca         1 G2E      -0.121000
     19 C19        132.3400   131.2480   132.1150 ca         1 G2E       0.007100
     20 C23        133.1390   125.3700   135.1370 ca         1 G2E      -0.073000
     21 C25        131.0430   132.6610   131.0120 c5         1 G2E       0.372600
     22 N05        135.9170   127.5070   133.7340 n          1 G2E      -0.217400
     23 O01        134.7030   131.5810   135.4790 os         1 G2E      -0.314100
     24 O02        136.8690   129.6150   133.2970 o          1 G2E      -0.501000
     25 O03        131.5490   131.2780   131.0120 os         1 G2E      -0.342100
     26 O04        131.7130   133.4280   132.0750 os         1 G2E      -0.340100
     27 H1         137.1630   125.8240   133.9040 h1         1 G2E       0.062200
     28 H2         137.9550   127.2680   133.2630 h1         1 G2E       0.062200
     29 H3         132.1510   128.5920   135.8300 ha         1 G2E       0.123000
     30 H4         134.9640   124.8230   134.0890 ha         1 G2E       0.125000
     31 H5         131.3990   126.2190   136.1180 ha         1 G2E       0.119000
     32 H6         137.5560   124.8280   130.2890 hc         1 G2E       0.039700
     33 H7         137.9680   124.3570   131.9330 hc         1 G2E       0.039700
     34 H8         139.6350   126.2310   132.0650 hc         1 G2E       0.041700
     35 H9         139.1760   126.7640   130.4470 hc         1 G2E       0.041700
     36 H10        141.2840   125.4380   130.3890 hc         1 G2E       0.032033
     37 H11        140.4580   124.0490   131.1290 hc         1 G2E       0.032033
     38 H12        140.0070   124.5870   129.4940 hc         1 G2E       0.032033
     39 H13        134.3020   129.8760   136.6090 h1         1 G2E       0.069200
     40 H14        136.0020   130.0490   136.1360 h1         1 G2E       0.069200
     41 H15        132.9570   129.1550   132.1160 ha         1 G2E       0.141000
     42 H16        136.6870   127.0310   131.1180 hc         1 G2E       0.050200
     43 H17        135.8230   125.6430   131.7660 hc         1 G2E       0.050200
     44 H18        133.2920   133.6560   134.3440 ha         1 G2E       0.152000
     45 H19        132.7910   124.3440   135.2380 ha         1 G2E       0.115000
     46 H20        131.2410   133.1270   130.0390 h2         1 G2E       0.065200
     47 H21        129.9650   132.6460   131.2080 h2         1 G2E       0.065200
@<TRIPOS>BOND
     1     1    10 1   
     2     1    22 1   
     3     1    24 2   
     4     2    17 1   
     5     2    22 1   
     6     2    27 1   
     7     2    28 1   
     8     3     6 ar  
     9     3    11 ar  
    10     3    29 1   
    11     4    14 ar  
    12     4    20 ar  
    13     4    30 1   
    14     5    18 ar  
    15     5    19 ar  
    16     5    26 1   
    17     6    20 ar  
    18     6    31 1   
    19     7     8 1   
    20     7    17 1   
    21     7    32 1   
    22     7    33 1   
    23     8     9 1   
    24     8    34 1   
    25     8    35 1   
    26     9    36 1   
    27     9    37 1   
    28     9    38 1   
    29    10    11 1   
    30    10    12 1   
    31    10    13 1   
    32    11    14 ar  
    33    12    15 ar  
    34    12    16 ar  
    35    13    23 1   
    36    13    39 1   
    37    13    40 1   
    38    14    22 1   
    39    15    18 ar  
    40    15    23 1   
    41    16    19 ar  
    42    16    41 1   
    43    17    42 1   
    44    17    43 1   
    45    18    44 1   
    46    19    25 1   
    47    20    45 1   
    48    21    25 1   
    49    21    26 1   
    50    21    46 1   
    51    21    47 1   
@<TRIPOS>SUBSTRUCTURE
     1 G2E         1 TEMP              0 ****  ****    0 ROOT
