@<TRIPOS>MOLECULE
G2F
   23    23     1     0     0
SMALL
No Charge or Current Charge


@<TRIPOS>ATOM
      1 C1          21.4500    68.7360    36.9100 c6         1 G2F       0.357300
      2 C2          20.7960    69.6940    37.9570 c6         1 G2F       0.183300
      3 C3          20.0630    68.8900    39.0710 c6         1 G2F       0.147300
      4 C4          19.0540    67.8910    38.4310 c6         1 G2F       0.105300
      5 C5          19.8040    66.9810    37.4020 c6         1 G2F       0.145300
      6 C6          18.8530    65.9910    36.6480 c3         1 G2F       0.163600
      7 O1          22.5190    67.9570    37.4540 oh         1 G2F      -0.665000
      8 O3          19.3620    69.7490    39.9910 oh         1 G2F      -0.649000
      9 O4          18.4040    67.1240    39.4710 oh         1 G2F      -0.724000
     10 O5          20.4700    67.8080    36.4020 os         1 G2F      -0.468000
     11 O6          17.8340    66.6490    35.8680 oh         1 G2F      -0.715000
     12 F2          21.7970    70.5070    38.5450 f          1 G2F      -0.241000
     13 H1          21.8320    69.3460    36.0760 h2         1 G2F       0.078700
     14 H2          20.0870    70.3600    37.4470 h1         1 G2F       0.076700
     15 H3          20.8190    68.3040    39.6150 h1         1 G2F       0.069700
     16 H4          18.3050    68.4780    37.8760 h1         1 G2F       0.069700
     17 H5          20.5560    66.3770    37.9320 h1         1 G2F       0.063700
     18 H61         19.4770    65.3660    35.9940 h1         1 G2F       0.031700
     19 H62         18.3930    65.3180    37.3840 h1         1 G2F       0.031700
     20 HO1         22.8030    67.3680    36.7240 ho         1 G2F       0.458000
     21 HO3         18.7300    69.1510    40.4530 ho         1 G2F       0.461000
     22 HO4         17.5910    66.7270    39.0760 ho         1 G2F       0.513000
     23 HO6         17.4010    65.9560    35.3160 ho         1 G2F       0.505000
@<TRIPOS>BOND
     1     1     2 1   
     2     1     7 1   
     3     1    10 1   
     4     1    13 1   
     5     2     3 1   
     6     2    12 1   
     7     2    14 1   
     8     3     4 1   
     9     3     8 1   
    10     3    15 1   
    11     4     5 1   
    12     4     9 1   
    13     4    16 1   
    14     5     6 1   
    15     5    10 1   
    16     5    17 1   
    17     6    11 1   
    18     6    18 1   
    19     6    19 1   
    20     7    20 1   
    21     8    21 1   
    22     9    22 1   
    23    11    23 1   
@<TRIPOS>SUBSTRUCTURE
     1 G2F         1 TEMP              0 ****  ****    0 ROOT
