@<TRIPOS>MOLECULE
G2F
   23    23     1     0     0
SMALL
bcc


@<TRIPOS>ATOM
      1 C1          21.4110    68.6620    36.9300 c6         1 G2F       0.310900
      2 C2          20.7570    69.5920    37.9480 c6         1 G2F       0.164600
      3 C3          20.0270    68.8230    39.0290 c6         1 G2F       0.124100
      4 C4          19.0430    67.8630    38.3610 c6         1 G2F       0.082100
      5 C5          19.7880    66.9770    37.3580 c6         1 G2F       0.122100
      6 C6          18.8980    66.0100    36.6090 c3         1 G2F       0.140400
      7 O1          22.4540    67.9970    37.5590 oh         1 G2F      -0.602800
      8 O3          19.3740    69.7510    39.8560 oh         1 G2F      -0.586800
      9 O4          18.4420    67.1040    39.3840 oh         1 G2F      -0.601800
     10 O5          20.4450    67.7980    36.4020 os         1 G2F      -0.421600
     11 O6          17.8650    66.7100    35.9590 oh         1 G2F      -0.592800
     12 F2          21.7320    70.4030    38.5130 f          1 G2F      -0.222300
     13 H1          21.7690    69.2450    36.0740 h2         1 G2F       0.078700
     14 H2          20.0500    70.2420    37.4220 h1         1 G2F       0.076700
     15 H3          20.7540    68.2280    39.6030 h1         1 G2F       0.069700
     16 H4          18.2960    68.4620    37.8240 h1         1 G2F       0.069700
     17 H5          20.5180    66.3650    37.9060 h1         1 G2F       0.063700
     18 H61         19.5220    65.4480    35.9010 h1         1 G2F       0.031700
     19 H62         18.5110    65.2810    37.3310 h1         1 G2F       0.031700
     20 HO1         23.0230    67.5980    36.8920 ho         1 G2F       0.419000
     21 HO3         18.8860    69.2580    40.5240 ho         1 G2F       0.422000
     22 HO4         17.5610    66.8420    39.1010 ho         1 G2F       0.414000
     23 HO6         17.2740    66.0670    35.5570 ho         1 G2F       0.406000
@<TRIPOS>BOND
     1     1     2 1   
     2     1     7 1   
     3     1    10 1   
     4     1    13 1   
     5     2     3 1   
     6     2    12 1   
     7     2    14 1   
     8     3     4 1   
     9     3     8 1   
    10     3    15 1   
    11     4     5 1   
    12     4     9 1   
    13     4    16 1   
    14     5     6 1   
    15     5    10 1   
    16     5    17 1   
    17     6    11 1   
    18     6    18 1   
    19     6    19 1   
    20     7    20 1   
    21     8    21 1   
    22     9    22 1   
    23    11    23 1   
@<TRIPOS>SUBSTRUCTURE
     1 G2F         1 TEMP              0 ****  ****    0 ROOT
