@<TRIPOS>MOLECULE
G2G
   82    87     1     0     0
SMALL
bcc


@<TRIPOS>ATOM
      1 C3           4.8800     0.3270    -1.4910 ca         1 G2G      -0.077000
      2 C2          -4.5980     1.2290    -0.2450 cc         1 G2G       0.374400
      3 N1          -3.5920     0.3500    -0.0030 ns         1 G2G      -0.484500
      4 C7           6.2660     0.3220    -1.5190 ca         1 G2G      -0.243300
      5 C8           0.7200     0.6800     0.0820 ca         1 G2G      -0.104000
      6 C10         -4.6210     2.5360    -0.7340 cc         1 G2G      -0.337600
      7 C25         -0.0530    -0.4230    -0.1600 ca         1 G2G       0.037600
      8 C26         -0.2240    -2.7700    -0.9500 ca         1 G2G      -0.141000
      9 C27          0.3710    -3.9180    -1.3950 ca         1 G2G      -0.103000
     10 C9          10.3930    -0.3740     0.7720 c6         1 G2G       0.125300
     11 C12         -5.9470     2.9380    -0.7040 cd         1 G2G       0.184800
     12 C13         -6.3490    -0.3450     0.5820 ca         1 G2G      -0.106200
     13 C14         -6.5740     4.2520    -1.0740 c3         1 G2G      -0.006800
     14 C15         -7.6380     4.0300    -2.1550 c3         1 G2G      -0.095433
     15 C16         -7.2170     4.8590     0.1810 c3         1 G2G      -0.095433
     16 C17         -5.4980     5.1980    -1.6030 c3         1 G2G      -0.095433
     17 C18         -6.4380    -1.4590    -0.2390 ca         1 G2G      -0.097000
     18 C19         -6.7070    -0.4070     1.9210 ca         1 G2G      -0.097000
     19 C20         -7.1680    -1.6070     2.4360 ca         1 G2G      -0.121000
     20 C21         -6.8880    -2.6540     0.2970 ca         1 G2G      -0.121000
     21 N7          -5.8600     0.8750     0.0430 na         1 G2G       0.036900
     22 N8          -6.6640     1.9200    -0.2300 na         1 G2G      -0.536300
     23 C24         -2.2710     0.5690    -0.3710 c          1 G2G       0.803100
     24 O1          -1.9320     1.5340    -1.0200 o          1 G2G      -0.562100
     25 N4          -1.4400    -0.4070     0.0710 ns         1 G2G      -0.475100
     26 C4           0.5460    -1.6280    -0.6250 ca         1 G2G      -0.039000
     27 C5           1.9600    -1.6820    -0.7830 ca         1 G2G      -0.015000
     28 C6           2.7410    -0.5230    -0.5050 cp         1 G2G       0.002000
     29 C28          1.7680    -3.9760    -1.5490 ca         1 G2G      -0.120000
     30 C29          2.5390    -2.8840    -1.2570 ca         1 G2G      -0.101000
     31 C30          2.1100     0.6280    -0.1070 ca         1 G2G      -0.113000
     32 C37          5.0030    -1.3510     0.1820 ca         1 G2G       0.418200
     33 C1           4.2140    -0.5280    -0.6220 cp         1 G2G      -0.180300
     34 C36          6.9580    -0.5340    -0.6720 ca         1 G2G       0.424600
     35 N2           6.3250    -1.3560     0.1630 nb         1 G2G      -0.641000
     36 C23          8.4620    -0.5640    -0.6400 c3         1 G2G       0.117500
     37 N3           8.9740    -0.1000     0.6340 n3         1 G2G      -0.702600
     38 C31          8.7180     1.3130     0.8480 c6         1 G2G       0.125300
     39 C32          9.2460     1.7350     2.2050 c6         1 G2G       0.130400
     40 C33         10.8780     0.0850     2.1340 c6         1 G2G       0.130400
     41 O2          10.6230     1.4580     2.3390 os         1 G2G      -0.400600
     42 C34         -7.2640    -2.7450     1.6360 ca         1 G2G      -0.013300
     43 H3           4.3220     0.9890    -2.1420 ha         1 G2G       0.142000
     44 HN1         -3.8320    -0.4970     0.4950 hn         1 G2G       0.345500
     45 H7           6.8040     0.9800    -2.1890 ha         1 G2G       0.147000
     46 H8           0.2760     1.5930     0.4520 ha         1 G2G       0.146000
     47 H10         -3.7800     3.1210    -1.0530 ha         1 G2G       0.229000
     48 H26         -1.3020    -2.7350    -0.8650 ha         1 G2G       0.113000
     49 H27         -0.2350    -4.7790    -1.6450 ha         1 G2G       0.137000
     50 H91         10.5650    -1.4490     0.6780 h1         1 G2G       0.040700
     51 H92         10.9870     0.1210    -0.0170 h1         1 G2G       0.040700
     52 H151        -8.4680     3.4150    -1.8030 hc         1 G2G       0.055256
     53 H152        -8.0540     4.9930    -2.4550 hc         1 G2G       0.055256
     54 H153        -7.2160     3.5550    -3.0410 hc         1 G2G       0.055256
     55 H161        -6.4870     4.9810     0.9820 hc         1 G2G       0.055256
     56 H162        -7.6250     5.8420    -0.0590 hc         1 G2G       0.055256
     57 H163        -8.0370     4.2470     0.5590 hc         1 G2G       0.055256
     58 H171        -5.0290     4.8140    -2.5100 hc         1 G2G       0.055256
     59 H172        -5.9530     6.1590    -1.8470 hc         1 G2G       0.055256
     60 H173        -4.7180     5.3800    -0.8630 hc         1 G2G       0.055256
     61 H18         -6.1580    -1.3940    -1.2830 ha         1 G2G       0.157000
     62 H19         -6.6200     0.4660     2.5550 ha         1 G2G       0.157000
     63 H20         -7.4470    -1.6600     3.4810 ha         1 G2G       0.162000
     64 H21         -6.9490    -3.5270    -0.3400 ha         1 G2G       0.162000
     65 H221        -8.8610    -4.1120     2.0370 hc         1 G2G       0.066033
     66 H222        -7.3210    -4.8940     1.7170 hc         1 G2G       0.066033
     67 H223        -7.6080    -4.1030     3.2700 hc         1 G2G       0.066033
     68 HN8         -7.6620     1.8270    -0.1040 hn         1 G2G       0.520800
     69 HN4         -1.8270    -1.1820     0.5900 hn         1 G2G       0.327500
     70 H28          2.2330    -4.8820    -1.9130 ha         1 G2G       0.145000
     71 H29          3.6080    -2.9380    -1.4070 ha         1 G2G       0.150000
     72 H30          2.6960     1.5120     0.1110 ha         1 G2G       0.148000
     73 H37          4.5290    -2.0310     0.8840 h4         1 G2G       0.024100
     74 H231         8.7930    -1.5960    -0.7850 h1         1 G2G       0.048700
     75 H232         8.8630     0.0190    -1.4860 h1         1 G2G       0.048700
     76 H311         9.1790     1.9330     0.0590 h1         1 G2G       0.040700
     77 H312         7.6430     1.5050     0.8210 h1         1 G2G       0.040700
     78 H321         9.1140     2.8100     2.3390 h1         1 G2G       0.052950
     79 H322         8.6730     1.2240     2.9910 h1         1 G2G       0.052950
     80 H331        10.3920    -0.5170     2.9140 h1         1 G2G       0.052950
     81 H332        11.9560    -0.0630     2.2170 h1         1 G2G       0.052950
     82 C22         -7.7840    -4.0340     2.1970 c3         1 G2G      -0.067800
@<TRIPOS>BOND
     1     1     4 ar  
     2     1    33 ar  
     3     1    43 1   
     4     2     3 2   
     5     2     6 1   
     6     2    21 1   
     7     3    23 1   
     8     3    44 1   
     9     4    34 ar  
    10     4    45 1   
    11     5     7 ar  
    12     5    31 ar  
    13     5    46 1   
    14     6    11 2   
    15     6    47 1   
    16     7    25 1   
    17     7    26 ar  
    18     8     9 ar  
    19     8    26 ar  
    20     8    48 1   
    21     9    29 ar  
    22     9    49 1   
    23    10    37 1   
    24    10    40 1   
    25    10    50 1   
    26    10    51 1   
    27    11    13 1   
    28    11    22 1   
    29    12    17 ar  
    30    12    18 ar  
    31    12    21 1   
    32    13    14 1   
    33    13    15 1   
    34    13    16 1   
    35    14    52 1   
    36    14    53 1   
    37    14    54 1   
    38    15    55 1   
    39    15    56 1   
    40    15    57 1   
    41    16    58 1   
    42    16    59 1   
    43    16    60 1   
    44    17    20 ar  
    45    17    61 1   
    46    18    19 ar  
    47    18    62 1   
    48    19    42 ar  
    49    19    63 1   
    50    20    42 ar  
    51    20    64 1   
    52    21    22 1   
    53    22    68 1   
    54    23    24 2   
    55    23    25 1   
    56    25    69 1   
    57    26    27 ar  
    58    27    28 ar  
    59    27    30 ar  
    60    28    31 ar  
    61    28    33 1   
    62    29    30 ar  
    63    29    70 1   
    64    30    71 1   
    65    31    72 1   
    66    32    33 ar  
    67    32    35 ar  
    68    32    73 1   
    69    34    35 ar  
    70    34    36 1   
    71    36    37 1   
    72    36    74 1   
    73    36    75 1   
    74    37    38 1   
    75    38    39 1   
    76    38    76 1   
    77    38    77 1   
    78    39    41 1   
    79    39    78 1   
    80    39    79 1   
    81    40    41 1   
    82    40    80 1   
    83    40    81 1   
    84    42    82 1   
    85    65    82 1   
    86    66    82 1   
    87    67    82 1   
@<TRIPOS>SUBSTRUCTURE
     1 G2G         1 TEMP              0 ****  ****    0 ROOT
