@<TRIPOS>MOLECULE
G2G
   82    87     1     0     0
SMALL
No Charge or Current Charge


@<TRIPOS>ATOM
      1 C3           5.0280     0.0990    -1.3290 ca         1 G2G      -0.059000
      2 C2          -4.8450     1.1350    -0.7820 cc         1 G2G       0.374400
      3 N1          -3.7160     0.3370    -0.7460 ns         1 G2G      -0.417500
      4 C7           6.4230     0.0320    -1.1860 ca         1 G2G      -0.160000
      5 C8           0.6850     0.6260    -0.3850 ca         1 G2G      -0.086000
      6 C10         -4.9260     2.5370    -0.8710 cc         1 G2G      -0.387600
      7 C25         -0.1160    -0.4820    -0.7280 ca         1 G2G      -0.055000
      8 C26         -0.2590    -2.8530    -1.3890 ca         1 G2G      -0.123000
      9 C27          0.3580    -4.0700    -1.7130 ca         1 G2G      -0.085000
     10 C9          10.5620    -0.3880     1.1950 c6         1 G2G       0.125300
     11 C12         -6.2300     2.9510    -0.7880 cd         1 G2G       0.184800
     12 C13         -6.4200    -0.4040     0.1740 ca         1 G2G      -0.106200
     13 C14         -6.8320     4.3500    -0.8410 c3         1 G2G      -0.006800
     14 C15         -7.7890     4.4550    -2.0560 c3         1 G2G      -0.095433
     15 C16         -7.6190     4.6210     0.4670 c3         1 G2G      -0.095433
     16 C17         -5.7210     5.4250    -0.9860 c3         1 G2G      -0.095433
     17 C18         -7.0610    -1.5480    -0.3360 ca         1 G2G      -0.079000
     18 C19         -6.0780    -0.3510     1.5410 ca         1 G2G      -0.079000
     19 C20         -6.3650    -1.4380     2.3840 ca         1 G2G      -0.103000
     20 C21         -7.3470    -2.6350     0.5100 ca         1 G2G      -0.103000
     21 N7          -6.1390     0.6640    -0.6730 na         1 G2G       0.036900
     22 N8          -6.9780     1.7790    -0.6480 na         1 G2G      -0.591500
     23 C24         -2.3950     0.7050    -0.8210 c          1 G2G       0.669100
     24 O1          -2.0250     1.8610    -0.9530 o          1 G2G      -0.562100
     25 N4          -1.5400    -0.3860    -0.7470 ns         1 G2G      -0.149000
     26 C4           0.5120    -1.7190    -1.0340 ca         1 G2G      -0.039000
     27 C5           1.9310    -1.8270    -1.0020 ca         1 G2G      -0.015000
     28 C6           2.7290    -0.7020    -0.6430 cp         1 G2G       0.002000
     29 C28          1.7540    -4.1720    -1.6980 ca         1 G2G      -0.102000
     30 C29          2.5340    -3.0600    -1.3500 ca         1 G2G      -0.083000
     31 C30          2.0800     0.5140    -0.3490 ca         1 G2G      -0.095000
     32 C37          4.8730    -1.6210     0.3620 ca         1 G2G       0.352900
     33 C1           4.2180    -0.7530    -0.5470 cp         1 G2G      -0.115000
     34 C36          6.9820    -0.8710    -0.2600 ca         1 G2G       0.359300
     35 N2           6.2170    -1.6910     0.5030 nb         1 G2G      -0.641000
     36 C23          8.5090    -0.9670    -0.0880 c3         1 G2G       0.117500
     37 N3           9.1050    -0.1170     0.9880 n3         1 G2G      -0.702600
     38 C31          8.8610     1.3490     0.8040 c6         1 G2G       0.125300
     39 C32          9.4950     2.1900     1.9530 c6         1 G2G       0.153600
     40 C33         11.1580     0.4880     2.3360 c6         1 G2G       0.153600
     41 O2          10.9060     1.8900     2.0760 os         1 G2G      -0.447000
     42 C34         -6.9970    -2.5870     1.8720 ca         1 G2G      -0.013300
     43 H3           4.5790     0.7940    -2.0360 ha         1 G2G       0.124000
     44 HN1         -3.8790    -0.6550    -0.6440 hn         1 G2G       0.345500
     45 H7           7.0670     0.6730    -1.7810 ha         1 G2G       0.129000
     46 H8           0.2440     1.5810    -0.1180 ha         1 G2G       0.128000
     47 H10         -4.0690     3.1910    -0.9690 ha         1 G2G       0.279000
     48 H26         -1.3440    -2.8120    -1.4270 ha         1 G2G       0.095000
     49 H27         -0.2470    -4.9320    -1.9860 ha         1 G2G       0.119000
     50 H91         10.7210    -1.4480     1.4440 h1         1 G2G       0.040700
     51 H92         11.1220    -0.1880     0.2690 h1         1 G2G       0.040700
     52 H151        -8.6200     3.7450    -1.9720 hc         1 G2G       0.055256
     53 H152        -8.2170     5.4630    -2.1340 hc         1 G2G       0.055256
     54 H153        -7.2560     4.2410    -2.9910 hc         1 G2G       0.055256
     55 H161        -6.9630     4.5300     1.3410 hc         1 G2G       0.055256
     56 H162        -8.0460     5.6320     0.4670 hc         1 G2G       0.055256
     57 H163        -8.4440     3.9090     0.5900 hc         1 G2G       0.055256
     58 H171        -5.1470     5.2750    -1.9090 hc         1 G2G       0.055256
     59 H172        -6.1530     6.4330    -1.0210 hc         1 G2G       0.055256
     60 H173        -5.0250     5.3880    -0.1400 hc         1 G2G       0.055256
     61 H18         -7.3350    -1.5980    -1.3880 ha         1 G2G       0.139000
     62 H19         -5.5940     0.5340     1.9510 ha         1 G2G       0.139000
     63 H20         -6.0970    -1.3860     3.4370 ha         1 G2G       0.144000
     64 H21         -7.8420    -3.5150     0.1040 ha         1 G2G       0.144000
     65 H221        -8.3040    -3.6520     3.2360 hc         1 G2G       0.066033
     66 H222        -7.2940    -4.7110     2.2390 hc         1 G2G       0.066033
     67 H223        -6.5810    -3.8410     3.6010 hc         1 G2G       0.066033
     68 HN8         -7.9870     1.6350    -0.7070 hn         1 G2G       0.576000
     69 HN4         -2.0050    -1.2810    -0.6810 hn         1 G2G       0.161000
     70 H28          2.2330    -5.1120    -1.9620 ha         1 G2G       0.127000
     71 H29          3.6140    -3.1690    -1.3690 ha         1 G2G       0.132000
     72 H30          2.6730     1.3820    -0.0680 ha         1 G2G       0.130000
     73 H37          4.2910    -2.2850     1.0000 h4         1 G2G       0.024100
     74 H231         8.7530    -2.0210     0.1070 h1         1 G2G       0.048700
     75 H232         8.9750    -0.7200    -1.0520 h1         1 G2G       0.048700
     76 H311         9.2800     1.6890    -0.1540 h1         1 G2G       0.040700
     77 H312         7.7820     1.5610     0.7780 h1         1 G2G       0.040700
     78 H321         9.3710     3.2620     1.7450 h1         1 G2G       0.052950
     79 H322         8.9920     1.9650     2.9040 h1         1 G2G       0.052950
     80 H331        10.7050     0.2100     3.2990 h1         1 G2G       0.052950
     81 H332        12.2420     0.3240     2.4080 h1         1 G2G       0.052950
     82 C22         -7.3100    -3.7610     2.7860 c3         1 G2G      -0.067800
@<TRIPOS>BOND
     1     1     4 ar  
     2     1    33 ar  
     3     1    43 1   
     4     2     3 2   
     5     2     6 1   
     6     2    21 1   
     7     3    23 1   
     8     3    44 1   
     9     4    34 ar  
    10     4    45 1   
    11     5     7 ar  
    12     5    31 ar  
    13     5    46 1   
    14     6    11 2   
    15     6    47 1   
    16     7    25 1   
    17     7    26 ar  
    18     8     9 ar  
    19     8    26 ar  
    20     8    48 1   
    21     9    29 ar  
    22     9    49 1   
    23    10    37 1   
    24    10    40 1   
    25    10    50 1   
    26    10    51 1   
    27    11    13 1   
    28    11    22 1   
    29    12    17 ar  
    30    12    18 ar  
    31    12    21 1   
    32    13    14 1   
    33    13    15 1   
    34    13    16 1   
    35    14    52 1   
    36    14    53 1   
    37    14    54 1   
    38    15    55 1   
    39    15    56 1   
    40    15    57 1   
    41    16    58 1   
    42    16    59 1   
    43    16    60 1   
    44    17    20 ar  
    45    17    61 1   
    46    18    19 ar  
    47    18    62 1   
    48    19    42 ar  
    49    19    63 1   
    50    20    42 ar  
    51    20    64 1   
    52    21    22 1   
    53    22    68 1   
    54    23    24 2   
    55    23    25 1   
    56    25    69 1   
    57    26    27 ar  
    58    27    28 ar  
    59    27    30 ar  
    60    28    31 ar  
    61    28    33 1   
    62    29    30 ar  
    63    29    70 1   
    64    30    71 1   
    65    31    72 1   
    66    32    33 ar  
    67    32    35 ar  
    68    32    73 1   
    69    34    35 ar  
    70    34    36 1   
    71    36    37 1   
    72    36    74 1   
    73    36    75 1   
    74    37    38 1   
    75    38    39 1   
    76    38    76 1   
    77    38    77 1   
    78    39    41 1   
    79    39    78 1   
    80    39    79 1   
    81    40    41 1   
    82    40    80 1   
    83    40    81 1   
    84    42    82 1   
    85    65    82 1   
    86    66    82 1   
    87    67    82 1   
@<TRIPOS>SUBSTRUCTURE
     1 G2G         1 TEMP              0 ****  ****    0 ROOT
