@<TRIPOS>MOLECULE
G2H
   17    16     1     0     0
SMALL
bcc


@<TRIPOS>ATOM
      1 C1           1.3610     0.0790     1.9810 c3         1 G2H       0.109900
      2 C2           0.2440    -0.4150     1.0770 c3         1 G2H       0.240100
      3 C3          -1.0210    -0.6850     1.8780 c3         1 G2H       0.109900
      4 P           -0.4910    -0.0290    -1.4740 p5         1 G2H       1.271900
      5 O11          2.5720     0.1000     1.2570 oh         1 G2H      -0.573800
      6 O31         -1.4410     0.4930     2.5370 oh         1 G2H      -0.573800
      7 O1P          0.0420     0.5110     0.0500 os         1 G2H      -0.535200
      8 O2P         -1.9270    -0.5110    -1.2700 o          1 G2H      -0.926500
      9 O3P         -0.3630     1.2580    -2.2800 o          1 G2H      -0.926500
     10 O4P          0.4780    -1.1390    -1.8710 o          1 G2H      -0.926500
     11 H11A         1.4280    -0.5920     2.8490 h1         1 G2H      -0.000300
     12 H12          1.1100     1.0750     2.3670 h1         1 G2H      -0.000300
     13 H2           0.5550    -1.3900     0.6720 h1         1 G2H       0.040700
     14 H31A        -0.8100    -1.4890     2.5980 h1         1 G2H      -0.000300
     15 H32         -1.7850    -1.0540     1.1880 h1         1 G2H      -0.000300
     16 H11          3.2580     0.4300     1.8440 ho         1 G2H       0.346500
     17 H31         -2.2840     0.3090     2.9600 ho         1 G2H       0.346500
@<TRIPOS>BOND
     1     1     2 1   
     2     1     5 1   
     3     1    11 1   
     4     1    12 1   
     5     2     3 1   
     6     2     7 1   
     7     2    13 1   
     8     3     6 1   
     9     3    14 1   
    10     3    15 1   
    11     4     7 1   
    12     4     8 1   
    13     4     9 1   
    14     4    10 1   
    15     5    16 1   
    16     6    17 1   
@<TRIPOS>SUBSTRUCTURE
     1 G2H         1 TEMP              0 ****  ****    0 ROOT
