@<TRIPOS>MOLECULE
G2H
   17    16     1     0     0
SMALL
No Charge or Current Charge


@<TRIPOS>ATOM
      1 C1           1.4490     0.0800     2.0120 c3         1 G2H       0.133100
      2 C2           0.3150    -0.4520     1.0770 c3         1 G2H       0.263300
      3 C3          -1.0220    -0.7090     1.8520 c3         1 G2H       0.133100
      4 P           -0.5480     0.0320    -1.4030 p5         1 G2H       1.271900
      5 O11          2.7370     0.0820     1.3660 oh         1 G2H      -0.636000
      6 O31         -1.5610     0.4840     2.4550 oh         1 G2H      -0.636000
      7 O1P          0.1260     0.4850    -0.0120 os         1 G2H      -0.558400
      8 O2P         -1.9860    -0.3020    -1.2180 o          1 G2H      -0.926500
      9 O3P         -0.4390     1.1590    -2.3690 o          1 G2H      -0.926500
     10 O4P          0.1770    -1.1460    -1.9540 o          1 G2H      -0.926500
     11 H11A         1.4940    -0.5580     2.9040 h1         1 G2H      -0.000300
     12 H12          1.1980     1.0940     2.3500 h1         1 G2H      -0.000300
     13 H2           0.6470    -1.4220     0.6850 h1         1 G2H       0.040700
     14 H31A        -0.8210    -1.4500     2.6370 h1         1 G2H      -0.000300
     15 H32         -1.7620    -1.1640     1.1850 h1         1 G2H      -0.000300
     16 H11          3.3700     0.4890     1.9940 ho         1 G2H       0.385500
     17 H31         -2.4480     0.2500     2.8020 ho         1 G2H       0.385500
@<TRIPOS>BOND
     1     1     2 1   
     2     1     5 1   
     3     1    11 1   
     4     1    12 1   
     5     2     3 1   
     6     2     7 1   
     7     2    13 1   
     8     3     6 1   
     9     3    14 1   
    10     3    15 1   
    11     4     7 1   
    12     4     8 1   
    13     4     9 1   
    14     4    10 1   
    15     5    16 1   
    16     6    17 1   
@<TRIPOS>SUBSTRUCTURE
     1 G2H         1 TEMP              0 ****  ****    0 ROOT
