@<TRIPOS>MOLECULE
G2I
   65    67     1     0     0
SMALL
No Charge or Current Charge


@<TRIPOS>ATOM
      1 O61         19.7370    61.9240    35.3820 oh         1 G2I      -0.671000
      2 C61         20.6890    62.6630    36.1600 c3         1 G2I       0.176600
      3 C51         20.4180    64.1980    36.1630 c6         1 G2I      -0.128700
      4 C71         20.8670    64.8890    34.8480 c6         1 G2I       0.151800
      5 N11         20.6620    66.3620    34.9220 n7         1 G2I      -0.843400
      6 C21         19.2520    66.7510    35.2300 c6         1 G2I       0.149800
      7 C31         18.7360    66.0840    36.5420 c6         1 G2I       0.115300
      8 O31         17.3640    66.4220    36.8160 oh         1 G2I      -0.728000
      9 C41         18.9320    64.5440    36.4250 c6         1 G2I       0.146300
     10 O41         18.4510    63.8400    37.5860 os         1 G2I      -0.446000
     11 C12         17.0730    63.4420    37.5350 c6         1 G2I       0.367300
     12 C22         16.9310    61.9620    38.0220 c6         1 G2I       0.129300
     13 O22         17.6530    61.0330    37.1720 oh         1 G2I      -0.701000
     14 C32         15.4210    61.5870    38.0830 c6         1 G2I       0.137300
     15 O32         15.2290    60.2540    38.5900 oh         1 G2I      -0.712000
     16 O52         16.3040    64.3620    38.3410 os         1 G2I      -0.468000
     17 C52         14.8850    64.0590    38.3410 c6         1 G2I       0.142300
     18 C62         14.0940    65.1830    39.0960 c3         1 G2I       0.174600
     19 O62         14.2580    65.1800    40.5290 oh         1 G2I      -0.712000
     20 C42         14.6880    62.6440    38.9530 c6         1 G2I       0.118300
     21 O42         13.2930    62.3260    39.1390 os         1 G2I      -0.490000
     22 C13         12.9090    62.0440    40.4990 c6         1 G2I       0.359300
     23 C23         11.5640    62.7570    40.8440 c6         1 G2I       0.141300
     24 O23         11.7840    64.0990    41.3450 oh         1 G2I      -0.697000
     25 C33         10.7560    61.8830    41.8330 c6         1 G2I       0.115300
     26 O33          9.5470    62.5470    42.2390 oh         1 G2I      -0.637000
     27 C43         10.4220    60.5050    41.1600 c6         1 G2I       0.098300
     28 O43          9.9410    59.5840    42.1640 oh         1 G2I      -0.705000
     29 O53         12.8750    60.6140    40.7370 os         1 G2I      -0.447000
     30 C53         11.6530    59.9200    40.3690 c6         1 G2I       0.139300
     31 C63         11.4690    59.9190    38.8120 c3         1 G2I       0.140600
     32 O63         12.6440    59.4670    38.1070 oh         1 G2I      -0.722000
     33 HO61        19.0040    61.6780    36.0060 ho         1 G2I       0.460000
     34 H61         20.6660    62.3080    37.2000 h1         1 G2I       0.044700
     35 H61A        21.7080    62.4870    35.7860 h1         1 G2I       0.044700
     36 H51         21.0260    64.6020    36.9840 hc         1 G2I       0.057700
     37 H71         21.9300    64.6750    34.6610 h1         1 G2I       0.063200
     38 H71A        20.2960    64.4770    34.0010 h1         1 G2I       0.063200
     39 HN11        21.2710    66.7370    35.6610 hn         1 G2I       0.405000
     40 H21         19.1840    67.8450    35.3260 h1         1 G2I       0.065700
     41 H21A        18.6010    66.4540    34.3940 h1         1 G2I       0.065700
     42 H31         19.3660    66.4390    37.3710 h1         1 G2I       0.041700
     43 HO31        17.0550    65.7560    37.4860 ho         1 G2I       0.524000
     44 H41         18.3670    64.1980    35.5460 h1         1 G2I       0.052700
     45 H12         16.7060    63.4890    36.4980 h2         1 G2I       0.025700
     46 H22         17.3310    61.9220    39.0470 h1         1 G2I       0.113700
     47 HO22        17.2560    60.1520    37.3760 ho         1 G2I       0.500000
     48 H32         15.0100    61.6450    37.0640 h1         1 G2I       0.020700
     49 HO32        14.2390    60.0960    38.5820 ho         1 G2I       0.543000
     50 H52         14.5320    64.0550    37.2990 h1         1 G2I       0.042700
     51 H62         14.4100    66.1500    38.6820 h1         1 G2I       0.054200
     52 H62A        13.0300    65.0670    38.8430 h1         1 G2I       0.054200
     53 HO62        13.3960    64.8400    40.8970 ho         1 G2I       0.511000
     54 H42         15.1920    62.6540    39.9310 h1         1 G2I       0.080700
     55 H13         13.6580    62.4640    41.1880 h2         1 G2I       0.076700
     56 H23         10.9820    62.8150    39.9120 h1         1 G2I       0.101700
     57 HO23        10.9580    64.3140    41.8450 ho         1 G2I       0.510000
     58 H33         11.3890    61.6990    42.7150 h1         1 G2I       0.042700
     59 HO33         8.9960    61.8590    42.6800 ho         1 G2I       0.459000
     60 H43          9.6210    60.6830    40.4260 h1         1 G2I       0.092700
     61 HO43        10.6930    59.3840    42.7710 ho         1 G2I       0.507000
     62 H53         11.7780    58.8650    40.6540 h1         1 G2I       0.094700
     63 H63         10.6200    59.2620    38.5800 h1         1 G2I       0.036700
     64 H63A        11.1890    60.9270    38.4780 h1         1 G2I       0.036700
     65 HO63        12.3550    59.2380    37.1910 ho         1 G2I       0.513000
@<TRIPOS>BOND
     1     1     2 1   
     2     1    33 1   
     3     2     3 1   
     4     2    34 1   
     5     2    35 1   
     6     3     4 1   
     7     3     9 1   
     8     3    36 1   
     9     4     5 1   
    10     4    37 1   
    11     4    38 1   
    12     5     6 1   
    13     5    39 1   
    14     6     7 1   
    15     6    40 1   
    16     6    41 1   
    17     7     8 1   
    18     7     9 1   
    19     7    42 1   
    20     8    43 1   
    21     9    10 1   
    22     9    44 1   
    23    10    11 1   
    24    11    12 1   
    25    11    16 1   
    26    11    45 1   
    27    12    13 1   
    28    12    14 1   
    29    12    46 1   
    30    13    47 1   
    31    14    15 1   
    32    14    20 1   
    33    14    48 1   
    34    15    49 1   
    35    16    17 1   
    36    17    18 1   
    37    17    20 1   
    38    17    50 1   
    39    18    19 1   
    40    18    51 1   
    41    18    52 1   
    42    19    53 1   
    43    20    21 1   
    44    20    54 1   
    45    21    22 1   
    46    22    23 1   
    47    22    29 1   
    48    22    55 1   
    49    23    24 1   
    50    23    25 1   
    51    23    56 1   
    52    24    57 1   
    53    25    26 1   
    54    25    27 1   
    55    25    58 1   
    56    26    59 1   
    57    27    28 1   
    58    27    30 1   
    59    27    60 1   
    60    28    61 1   
    61    29    30 1   
    62    30    31 1   
    63    30    62 1   
    64    31    32 1   
    65    31    63 1   
    66    31    64 1   
    67    32    65 1   
@<TRIPOS>SUBSTRUCTURE
     1 G2I         1 TEMP              0 ****  ****    0 ROOT
