@<TRIPOS>MOLECULE
G2I
   65    67     1     0     0
SMALL
abcg2


@<TRIPOS>ATOM
      1 O61         19.9120    61.8460    35.6010 oh         1 G2I      -0.671000
      2 C61         20.6340    62.6950    36.4610 c3         1 G2I       0.176600
      3 C51         20.2930    64.1780    36.3030 c6         1 G2I      -0.128700
      4 C71         20.8580    64.7830    35.0140 c6         1 G2I       0.151800
      5 N11         20.5920    66.2040    34.8690 n7         1 G2I      -0.843400
      6 C21         19.1850    66.5150    35.0100 c6         1 G2I       0.149800
      7 C31         18.5480    65.9660    36.2890 c6         1 G2I       0.115300
      8 O31         17.1820    66.3040    36.2520 oh         1 G2I      -0.728000
      9 C41         18.7950    64.4580    36.3460 c6         1 G2I       0.146300
     10 O41         18.2630    63.8560    37.5170 os         1 G2I      -0.446000
     11 C12         16.9360    63.4820    37.5110 c6         1 G2I       0.367300
     12 C22         16.8260    62.0410    38.0180 c6         1 G2I       0.129300
     13 O22         17.4280    61.1620    37.0900 oh         1 G2I      -0.701000
     14 C32         15.3770    61.6580    38.3080 c6         1 G2I       0.137300
     15 O32         15.3640    60.3970    38.9080 oh         1 G2I      -0.712000
     16 O52         16.2490    64.3800    38.3510 os         1 G2I      -0.468000
     17 C52         14.8660    64.0880    38.4640 c6         1 G2I       0.142300
     18 C62         14.1610    65.2410    39.1630 c3         1 G2I       0.174600
     19 O62         14.4160    65.3200    40.5430 oh         1 G2I      -0.712000
     20 C42         14.7370    62.7420    39.1760 c6         1 G2I       0.118300
     21 O42         13.3680    62.4800    39.3900 os         1 G2I      -0.490000
     22 C13         12.9640    62.0300    40.6490 c6         1 G2I       0.359300
     23 C23         11.6390    62.7340    40.9880 c6         1 G2I       0.141300
     24 O23         11.8900    63.9590    41.6390 oh         1 G2I      -0.697000
     25 C33         10.7370    61.7890    41.7650 c6         1 G2I       0.115300
     26 O33          9.5700    62.4780    42.1260 oh         1 G2I      -0.637000
     27 C43         10.4250    60.6050    40.8480 c6         1 G2I       0.098300
     28 O43          9.6000    59.6550    41.4780 oh         1 G2I      -0.705000
     29 O53         12.8880    60.6430    40.7390 os         1 G2I      -0.447000
     30 C53         11.7210    59.9890    40.2750 c6         1 G2I       0.139300
     31 C63         11.6500    59.9050    38.7600 c3         1 G2I       0.140600
     32 O63         12.8310    59.3010    38.2780 oh         1 G2I      -0.722000
     33 HO61        19.0710    61.6420    36.0330 ho         1 G2I       0.460000
     34 H61         20.5060    62.4010    37.5080 h1         1 G2I       0.044700
     35 H61A        21.6970    62.5650    36.2350 h1         1 G2I       0.044700
     36 H51         20.7700    64.6980    37.1450 hc         1 G2I       0.057700
     37 H71         21.9390    64.6270    34.9790 h1         1 G2I       0.063200
     38 H71A        20.4370    64.2600    34.1490 h1         1 G2I       0.063200
     39 HN11        21.1170    66.7110    35.5720 hn         1 G2I       0.405000
     40 H21         19.0530    67.5990    34.9730 h1         1 G2I       0.065700
     41 H21A        18.6470    66.1010    34.1490 h1         1 G2I       0.065700
     42 H31         19.0460    66.4280    37.1560 h1         1 G2I       0.041700
     43 HO31        16.7830    66.0880    37.1030 ho         1 G2I       0.524000
     44 H41         18.3220    64.0050    35.4620 h1         1 G2I       0.052700
     45 H12         16.5100    63.5290    36.4920 h2         1 G2I       0.025700
     46 H22         17.4030    61.9600    38.9460 h1         1 G2I       0.113700
     47 HO22        16.8180    61.0220    36.3560 ho         1 G2I       0.500000
     48 H32         14.8270    61.6470    37.3500 h1         1 G2I       0.020700
     49 HO32        14.4750    60.0190    38.8000 ho         1 G2I       0.543000
     50 H52         14.4220    64.0110    37.4580 h1         1 G2I       0.042700
     51 H62         14.4960    66.1710    38.6930 h1         1 G2I       0.054200
     52 H62A        13.0910    65.1590    38.9530 h1         1 G2I       0.054200
     53 HO62        13.6830    64.8890    41.0030 ho         1 G2I       0.511000
     54 H42         15.2710    62.7970    40.1340 h1         1 G2I       0.080700
     55 H13         13.7120    62.3080    41.4040 h2         1 G2I       0.076700
     56 H23         11.1280    63.0000    40.0560 h1         1 G2I       0.101700
     57 HO23        12.1640    63.7830    42.5480 ho         1 G2I       0.510000
     58 H33         11.2690    61.4250    42.6610 h1         1 G2I       0.042700
     59 HO33         8.9830    61.8550    42.5680 ho         1 G2I       0.459000
     60 H43          9.8190    60.9980    40.0230 h1         1 G2I       0.092700
     61 HO43        10.0820    59.2640    42.2160 ho         1 G2I       0.507000
     62 H53         11.8170    58.9700    40.6620 h1         1 G2I       0.094700
     63 H63         10.7680    59.3050    38.5060 h1         1 G2I       0.036700
     64 H63A        11.4960    60.9000    38.3270 h1         1 G2I       0.036700
     65 HO63        12.7890    59.2640    37.3170 ho         1 G2I       0.513000
@<TRIPOS>BOND
     1     1     2 1   
     2     1    33 1   
     3     2     3 1   
     4     2    34 1   
     5     2    35 1   
     6     3     4 1   
     7     3     9 1   
     8     3    36 1   
     9     4     5 1   
    10     4    37 1   
    11     4    38 1   
    12     5     6 1   
    13     5    39 1   
    14     6     7 1   
    15     6    40 1   
    16     6    41 1   
    17     7     8 1   
    18     7     9 1   
    19     7    42 1   
    20     8    43 1   
    21     9    10 1   
    22     9    44 1   
    23    10    11 1   
    24    11    12 1   
    25    11    16 1   
    26    11    45 1   
    27    12    13 1   
    28    12    14 1   
    29    12    46 1   
    30    13    47 1   
    31    14    15 1   
    32    14    20 1   
    33    14    48 1   
    34    15    49 1   
    35    16    17 1   
    36    17    18 1   
    37    17    20 1   
    38    17    50 1   
    39    18    19 1   
    40    18    51 1   
    41    18    52 1   
    42    19    53 1   
    43    20    21 1   
    44    20    54 1   
    45    21    22 1   
    46    22    23 1   
    47    22    29 1   
    48    22    55 1   
    49    23    24 1   
    50    23    25 1   
    51    23    56 1   
    52    24    57 1   
    53    25    26 1   
    54    25    27 1   
    55    25    58 1   
    56    26    59 1   
    57    27    28 1   
    58    27    30 1   
    59    27    60 1   
    60    28    61 1   
    61    29    30 1   
    62    30    31 1   
    63    30    62 1   
    64    31    32 1   
    65    31    63 1   
    66    31    64 1   
    67    32    65 1   
@<TRIPOS>SUBSTRUCTURE
     1 G2I         1 TEMP              0 ****  ****    0 ROOT
