@<TRIPOS>MOLECULE
G2J
   57    61     1     0     0
SMALL
No Charge or Current Charge


@<TRIPOS>ATOM
      1 O01         -2.8210     1.1740     2.9080 o          1 G2J      -0.592100
      2 C02         -2.6510     0.7810     1.7590 c          1 G2J       0.615700
      3 C03         -3.3590    -0.4660     1.2660 ca         1 G2J      -0.103600
      4 C04         -4.6610    -0.7590     1.7270 ca         1 G2J      -0.113000
      5 C05         -5.3280    -1.9180     1.2990 ca         1 G2J      -0.080000
      6 C06         -4.6980    -2.8120     0.4170 ca         1 G2J      -0.188000
      7 C07         -3.3860    -2.5490    -0.0300 ca         1 G2J       0.134100
      8 O08         -2.7070    -3.3980    -0.8810 os         1 G2J      -0.340100
      9 C09         -3.2940    -4.6130    -1.3810 c3         1 G2J       0.148900
     10 C10         -2.7240    -1.3880     0.4010 ca         1 G2J      -0.121000
     11 N11         -1.7150     1.4140     0.9080 n          1 G2J      -0.396800
     12 C12         -2.0460     1.5980    -0.5310 c3         1 G2J       0.128000
     13 C13         -3.0110     2.7550    -0.7670 cx         1 G2J      -0.152700
     14 C14         -4.5020     2.5750    -0.5860 cx         1 G2J      -0.127400
     15 C15         -3.9270     2.7660    -1.9700 cx         1 G2J      -0.127400
     16 C16         -0.7800     2.4090     1.4890 c3         1 G2J       0.135300
     17 C17          0.5200     2.5740     0.7100 ca         1 G2J      -0.105300
     18 C18          0.8080     3.7820     0.0510 ca         1 G2J      -0.106000
     19 C19          2.0040     3.9190    -0.6690 ca         1 G2J      -0.116000
     20 C20          2.9150     2.8510    -0.7410 ca         1 G2J      -0.107000
     21 C21          2.6360     1.6230    -0.0980 ca         1 G2J      -0.099500
     22 C22          3.5810     0.4940    -0.1470 cc         1 G2J       0.288500
     23 C23          4.6570     0.4690    -1.0100 cd         1 G2J      -0.195000
     24 N24          5.2340    -0.7500    -0.7250 na         1 G2J      -0.173500
     25 C25          6.3540    -1.5030    -1.2100 c5         1 G2J       0.072600
     26 C26          6.2290    -2.8970    -0.4560 c5         1 G2J      -0.098400
     27 C27          5.0370    -2.7060     0.5990 c5         1 G2J      -0.102700
     28 C28          4.5190    -1.3570     0.2270 cd         1 G2J       0.389800
     29 N29          3.4820    -0.6440     0.6220 nc         1 G2J      -0.651000
     30 C30          1.4340     1.5050     0.6350 ca         1 G2J      -0.068000
     31 H1          -5.1620    -0.0770     2.4110 ha         1 G2J       0.126000
     32 H2          -6.3360    -2.1240     1.6530 ha         1 G2J       0.113000
     33 H3          -5.2360    -3.7010     0.1030 ha         1 G2J       0.116000
     34 H4          -3.5510    -5.2900    -0.5560 h1         1 G2J       0.040367
     35 H5          -4.2020    -4.4000    -1.9590 h1         1 G2J       0.040367
     36 H6          -2.5860    -5.1340    -2.0380 h1         1 G2J       0.040367
     37 H7          -1.7040    -1.2140     0.0690 ha         1 G2J       0.140000
     38 H8          -1.1260     1.7810    -1.0990 h1         1 G2J       0.062200
     39 H9          -2.4850     0.6870    -0.9490 h1         1 G2J       0.062200
     40 H10         -2.5940     3.7140    -0.4700 hc         1 G2J       0.080700
     41 H11         -4.8750     1.5860    -0.3290 hc         1 G2J       0.072200
     42 H12         -5.0610     3.3990    -0.1500 hc         1 G2J       0.072200
     43 H13         -4.1020     3.7180    -2.4650 hc         1 G2J       0.072200
     44 H14         -3.9130     1.9040    -2.6340 hc         1 G2J       0.072200
     45 H15         -1.2940     3.3760     1.5650 h1         1 G2J       0.063700
     46 H16         -0.5180     2.1030     2.5110 h1         1 G2J       0.063700
     47 H17          0.1090     4.6140     0.0970 ha         1 G2J       0.109000
     48 H18          2.2290     4.8570    -1.1730 ha         1 G2J       0.110000
     49 H19          3.8360     2.9930    -1.2990 ha         1 G2J       0.105000
     50 H20          5.0240     1.1640    -1.7550 h4         1 G2J       0.159000
     51 H21          6.3050    -1.6190    -2.3000 h1         1 G2J       0.060700
     52 H22          5.9910    -3.6970    -1.1670 hc         1 G2J       0.059700
     53 H23          4.2720    -3.4850     0.5020 hc         1 G2J       0.072700
     54 H25          1.1980     0.5730     1.1450 ha         1 G2J       0.141000
     55 H26          7.2910    -0.9900    -0.9560 h1         1 G2J       0.060700
     56 H27          7.1680    -3.1790     0.0330 hc         1 G2J       0.059700
     57 H28          5.4010    -2.7250     1.6320 hc         1 G2J       0.072700
@<TRIPOS>BOND
     1     1     2 2   
     2     2     3 1   
     3     2    11 1   
     4     3     4 ar  
     5     3    10 ar  
     6     4     5 ar  
     7     4    31 1   
     8     5     6 ar  
     9     5    32 1   
    10     6     7 ar  
    11     6    33 1   
    12     7     8 1   
    13     7    10 ar  
    14     8     9 1   
    15     9    34 1   
    16     9    35 1   
    17     9    36 1   
    18    10    37 1   
    19    11    12 1   
    20    11    16 1   
    21    12    13 1   
    22    12    38 1   
    23    12    39 1   
    24    13    14 1   
    25    13    15 1   
    26    13    40 1   
    27    14    15 1   
    28    14    41 1   
    29    14    42 1   
    30    15    43 1   
    31    15    44 1   
    32    16    17 1   
    33    16    45 1   
    34    16    46 1   
    35    17    18 ar  
    36    17    30 ar  
    37    18    19 ar  
    38    18    47 1   
    39    19    20 ar  
    40    19    48 1   
    41    20    21 ar  
    42    20    49 1   
    43    21    22 1   
    44    21    30 ar  
    45    22    23 2   
    46    22    29 1   
    47    23    24 1   
    48    23    50 1   
    49    24    25 1   
    50    24    28 1   
    51    25    26 1   
    52    25    51 1   
    53    25    55 1   
    54    26    27 1   
    55    26    52 1   
    56    26    56 1   
    57    27    28 1   
    58    27    53 1   
    59    27    57 1   
    60    28    29 2   
    61    30    54 1   
@<TRIPOS>SUBSTRUCTURE
     1 G2J         1 TEMP              0 ****  ****    0 ROOT
