@<TRIPOS>MOLECULE
G2J
   57    61     1     0     0
SMALL
bcc


@<TRIPOS>ATOM
      1 O01         -2.2100     0.7320     2.9540 o          1 G2J      -0.592100
      2 C02         -2.2910     0.6280     1.7380 c          1 G2J       0.682700
      3 C03         -3.0120    -0.5520     1.1620 ca         1 G2J      -0.103600
      4 C04         -4.3440    -0.7710     1.5040 ca         1 G2J      -0.131000
      5 C05         -4.9820    -1.9060     1.0330 ca         1 G2J      -0.098000
      6 C06         -4.3070    -2.8420     0.2570 ca         1 G2J      -0.206000
      7 C07         -2.9660    -2.6320    -0.0590 ca         1 G2J       0.134100
      8 O08         -2.2150    -3.4780    -0.7850 os         1 G2J      -0.316900
      9 C09         -2.7980    -4.6860    -1.2340 c3         1 G2J       0.125700
     10 C10         -2.3260    -1.4760     0.3900 ca         1 G2J      -0.139000
     11 N11         -1.7180     1.4980     0.8770 n          1 G2J      -0.463800
     12 C12         -2.1160     1.6330    -0.5200 c3         1 G2J       0.128000
     13 C13         -2.9800     2.8440    -0.7610 cx         1 G2J      -0.152700
     14 C14         -4.4140     2.8160    -0.3350 cx         1 G2J      -0.127400
     15 C15         -4.0640     2.7630    -1.7920 cx         1 G2J      -0.127400
     16 C16         -0.8840     2.5690     1.4000 c3         1 G2J       0.135300
     17 C17          0.3980     2.7020     0.6200 ca         1 G2J      -0.105300
     18 C18          0.7260     3.8920    -0.0160 ca         1 G2J      -0.124000
     19 C19          1.9190     3.9930    -0.7250 ca         1 G2J      -0.134000
     20 C20          2.7810     2.9130    -0.8020 ca         1 G2J      -0.125000
     21 C21          2.4660     1.7050    -0.1700 ca         1 G2J      -0.099500
     22 C22          3.3670     0.5560    -0.2350 cc         1 G2J       0.353800
     23 C23          4.5510     0.4390    -0.9310 cd         1 G2J      -0.227600
     24 N24          4.9830    -0.8230    -0.6690 na         1 G2J      -0.194900
     25 C25          6.1430    -1.6400    -0.9620 c5         1 G2J       0.043300
     26 C26          5.6690    -3.0290    -0.4910 c5         1 G2J      -0.098400
     27 C27          4.5450    -2.7720     0.5360 c5         1 G2J      -0.102700
     28 C28          4.0940    -1.4030     0.1560 cd         1 G2J       0.389800
     29 N29          3.0980    -0.6100     0.4430 nc         1 G2J      -0.651000
     30 C30          1.2680     1.6200     0.5360 ca         1 G2J      -0.086000
     31 H1          -4.8780    -0.0590     2.1200 ha         1 G2J       0.144000
     32 H2          -6.0220    -2.0780     1.2760 ha         1 G2J       0.131000
     33 H3          -4.8380    -3.7190    -0.0870 ha         1 G2J       0.134000
     34 H4          -3.1520    -5.3000    -0.4020 h1         1 G2J       0.040367
     35 H5          -3.6300    -4.5080    -1.9210 h1         1 G2J       0.040367
     36 H6          -2.0180    -5.2280    -1.7620 h1         1 G2J       0.040367
     37 H7          -1.2860    -1.3130     0.1290 ha         1 G2J       0.158000
     38 H8          -1.2170     1.6830    -1.1380 h1         1 G2J       0.062200
     39 H9          -2.6510     0.7400    -0.8320 h1         1 G2J       0.062200
     40 H10         -2.4760     3.8030    -0.6850 hc         1 G2J       0.080700
     41 H11         -4.7900     1.9110     0.1290 hc         1 G2J       0.072200
     42 H12         -4.8480     3.7260     0.0580 hc         1 G2J       0.072200
     43 H13         -4.2570     3.6370    -2.4000 hc         1 G2J       0.072200
     44 H14         -4.2000     1.8220    -2.3120 hc         1 G2J       0.072200
     45 H15         -1.4310     3.5160     1.3930 h1         1 G2J       0.063700
     46 H16         -0.6600     2.3470     2.4420 h1         1 G2J       0.063700
     47 H17          0.0540     4.7400     0.0370 ha         1 G2J       0.127000
     48 H18          2.1750     4.9200    -1.2210 ha         1 G2J       0.128000
     49 H19          3.7050     3.0140    -1.3580 ha         1 G2J       0.123000
     50 H20          5.0850     1.1180    -1.5740 h4         1 G2J       0.177000
     51 H21          6.3890    -1.6130    -2.0220 h1         1 G2J       0.060700
     52 H22          5.2680    -3.5810    -1.3410 hc         1 G2J       0.059700
     53 H23          3.7490    -3.5130     0.4760 hc         1 G2J       0.072700
     54 H25          1.0110     0.6880     1.0260 ha         1 G2J       0.159000
     55 H26          7.0060    -1.2800    -0.3990 h1         1 G2J       0.060700
     56 H27          6.4880    -3.6110    -0.0760 hc         1 G2J       0.059700
     57 H28          4.9240    -2.7800     1.5610 hc         1 G2J       0.072700
@<TRIPOS>BOND
     1     1     2 2   
     2     2     3 1   
     3     2    11 1   
     4     3     4 ar  
     5     3    10 ar  
     6     4     5 ar  
     7     4    31 1   
     8     5     6 ar  
     9     5    32 1   
    10     6     7 ar  
    11     6    33 1   
    12     7     8 1   
    13     7    10 ar  
    14     8     9 1   
    15     9    34 1   
    16     9    35 1   
    17     9    36 1   
    18    10    37 1   
    19    11    12 1   
    20    11    16 1   
    21    12    13 1   
    22    12    38 1   
    23    12    39 1   
    24    13    14 1   
    25    13    15 1   
    26    13    40 1   
    27    14    15 1   
    28    14    41 1   
    29    14    42 1   
    30    15    43 1   
    31    15    44 1   
    32    16    17 1   
    33    16    45 1   
    34    16    46 1   
    35    17    18 ar  
    36    17    30 ar  
    37    18    19 ar  
    38    18    47 1   
    39    19    20 ar  
    40    19    48 1   
    41    20    21 ar  
    42    20    49 1   
    43    21    22 1   
    44    21    30 ar  
    45    22    23 2   
    46    22    29 1   
    47    23    24 1   
    48    23    50 1   
    49    24    25 1   
    50    24    28 1   
    51    25    26 1   
    52    25    51 1   
    53    25    55 1   
    54    26    27 1   
    55    26    52 1   
    56    26    56 1   
    57    27    28 1   
    58    27    53 1   
    59    27    57 1   
    60    28    29 2   
    61    30    54 1   
@<TRIPOS>SUBSTRUCTURE
     1 G2J         1 TEMP              0 ****  ****    0 ROOT
