@<TRIPOS>MOLECULE
G2K
   60    63     1     0     0
SMALL
bcc


@<TRIPOS>ATOM
      1 C1          -4.8610     1.1450    -1.5500 c          1 G2K       0.652700
      2 C10          5.7030     2.2180     0.9320 ca         1 G2K      -0.132000
      3 C11          5.0140     1.5590     1.9410 ca         1 G2K      -0.129500
      4 C12          3.6660     1.2660     1.7870 ca         1 G2K      -0.121000
      5 C13         -3.6640    -0.4030    -0.1650 cc         1 G2K       0.462900
      6 C14         -3.6430    -1.7920     0.4180 c5         1 G2K       0.085400
      7 C15         -4.4050    -1.8610     1.7550 c5         1 G2K      -0.090400
      8 C16         -3.5740    -2.8240     2.5950 c5         1 G2K      -0.091400
      9 C17         -2.1490    -2.4780     2.1910 c5         1 G2K       0.106000
     10 C19          0.0800    -2.4320     0.3850 c3         1 G2K       0.059400
     11 C2          -3.8030     2.0980    -1.2280 cc         1 G2K       0.050900
     12 C20          2.2880    -1.9640    -0.2830 ca         1 G2K       0.136100
     13 C21          2.8420    -2.4260     0.9070 ca         1 G2K      -0.212000
     14 C22          4.1930    -2.2390     1.1700 ca         1 G2K      -0.092000
     15 C23          5.0090    -1.5940     0.2570 ca         1 G2K      -0.145000
     16 C24          4.4680    -1.1320    -0.9340 ca         1 G2K      -0.081000
     17 C25          3.1240    -1.3190    -1.1980 ca         1 G2K      -0.002600
     18 C3          -2.7890     1.7020    -0.4090 cd         1 G2K       0.025400
     19 C4          -1.5870     2.5500    -0.1210 c          1 G2K       0.697300
     20 C5           0.6050     2.3960     1.0020 c3         1 G2K       0.102000
     21 C6           1.5310     1.3040     0.4590 c3         1 G2K      -0.063100
     22 C7           2.9870     1.6240     0.6270 ca         1 G2K      -0.074300
     23 C8           3.6860     2.2860    -0.3780 ca         1 G2K      -0.121000
     24 C9           5.0340     2.5820    -0.2300 ca         1 G2K      -0.129500
     25 N1          -0.7740     2.0150     0.8030 ns         1 G2K      -0.557900
     26 N2          -2.7640     0.4520     0.1420 nd         1 G2K      -0.616300
     27 N3          -2.2930    -2.1840     0.7710 n          1 G2K      -0.483800
     28 N4          -4.6930    -0.0920    -0.9940 ns         1 G2K      -0.452400
     29 O1          -5.7990     1.4340    -2.2790 o          1 G2K      -0.628500
     30 O2          -3.9130     3.2980    -1.7880 oh         1 G2K      -0.430100
     31 O3          -1.3800     3.6040    -0.7040 o          1 G2K      -0.575100
     32 O4           0.9910    -2.0780    -0.6220 os         1 G2K      -0.273900
     33 O5          -1.5350    -1.9830    -1.3360 o          1 G2K      -0.552100
     34 CL1          2.4450    -0.7100    -2.6670 cl         1 G2K      -0.082400
     35 H1           6.7550     2.4450     1.0490 ha         1 G2K       0.128000
     36 H2           5.5290     1.2640     2.8460 ha         1 G2K       0.128500
     37 H3           3.1400     0.7340     2.5720 ha         1 G2K       0.130500
     38 H4          -4.0710    -2.4910    -0.3070 h1         1 G2K       0.078700
     39 H5          -4.4230    -0.8770     2.2290 hc         1 G2K       0.064700
     40 H6          -5.4350    -2.1820     1.6140 hc         1 G2K       0.064700
     41 H7          -3.7420    -2.7040     3.6640 hc         1 G2K       0.062200
     42 H8          -3.7950    -3.8590     2.3290 hc         1 G2K       0.062200
     43 H9          -1.7840    -1.6040     2.7410 h1         1 G2K       0.051200
     44 H10         -1.4570    -3.3030     2.3580 h1         1 G2K       0.051200
     45 H11          0.2450    -1.8320     1.2890 h1         1 G2K       0.050200
     46 H12          0.1820    -3.4860     0.6750 h1         1 G2K       0.050200
     47 H13          2.2310    -2.9320     1.6430 ha         1 G2K       0.130000
     48 H14          4.6000    -2.6010     2.1040 ha         1 G2K       0.132000
     49 H15          6.0560    -1.4330     0.4690 ha         1 G2K       0.140000
     50 H16          5.0830    -0.6070    -1.6520 ha         1 G2K       0.150000
     51 H17          0.7930     2.5510     2.0660 h1         1 G2K       0.062200
     52 H18          0.7870     3.3460     0.5000 h1         1 G2K       0.062200
     53 H19          1.3020     0.3710     0.9820 hc         1 G2K       0.053700
     54 H20          1.3040     1.1410    -0.5960 hc         1 G2K       0.053700
     55 H21          3.1730     2.5620    -1.2930 ha         1 G2K       0.130500
     56 H22          5.5640     3.0920    -1.0240 ha         1 G2K       0.128500
     57 H23         -1.0560     1.1100     1.1550 hn         1 G2K       0.325500
     58 H24         -5.3780    -0.8020    -1.2290 hn         1 G2K       0.337500
     59 H25         -4.7290     3.3110    -2.3140 ho         1 G2K       0.452000
     60 C18         -1.3180    -2.1810    -0.1550 c          1 G2K       0.682100
@<TRIPOS>BOND
     1     1    11 1   
     2     1    28 1   
     3     1    29 2   
     4     2     3 ar  
     5     2    24 ar  
     6     2    35 1   
     7     3     4 ar  
     8     3    36 1   
     9     4    22 ar  
    10     4    37 1   
    11     5     6 1   
    12     5    26 2   
    13     5    28 1   
    14     6     7 1   
    15     6    27 1   
    16     6    38 1   
    17     7     8 1   
    18     7    39 1   
    19     7    40 1   
    20     8     9 1   
    21     8    41 1   
    22     8    42 1   
    23     9    27 1   
    24     9    43 1   
    25     9    44 1   
    26    10    32 1   
    27    10    45 1   
    28    10    46 1   
    29    10    60 1   
    30    11    18 2   
    31    11    30 1   
    32    12    13 ar  
    33    12    17 ar  
    34    12    32 1   
    35    13    14 ar  
    36    13    47 1   
    37    14    15 ar  
    38    14    48 1   
    39    15    16 ar  
    40    15    49 1   
    41    16    17 ar  
    42    16    50 1   
    43    17    34 1   
    44    18    19 1   
    45    18    26 1   
    46    19    25 1   
    47    19    31 2   
    48    20    21 1   
    49    20    25 1   
    50    20    51 1   
    51    20    52 1   
    52    21    22 1   
    53    21    53 1   
    54    21    54 1   
    55    22    23 ar  
    56    23    24 ar  
    57    23    55 1   
    58    24    56 1   
    59    25    57 1   
    60    27    60 1   
    61    28    58 1   
    62    30    59 1   
    63    33    60 2   
@<TRIPOS>SUBSTRUCTURE
     1 G2K         1 TEMP              0 ****  ****    0 ROOT
