@<TRIPOS>MOLECULE
G2K
   60    63     1     0     0
SMALL
No Charge or Current Charge


@<TRIPOS>ATOM
      1 C1          -4.9910     1.1760    -1.4790 c          1 G2K       0.510200
      2 C10          5.8410     2.3210     0.8180 ca         1 G2K      -0.114000
      3 C11          5.0290     1.4930     1.6110 ca         1 G2K      -0.111500
      4 C12          3.6670     1.3400     1.3030 ca         1 G2K      -0.103000
      5 C13         -3.8340    -0.4000    -0.0730 cc         1 G2K       0.462900
      6 C14         -3.8020    -1.8170     0.5080 c5         1 G2K       0.085400
      7 C15         -4.4970    -1.8530     1.9030 c5         1 G2K      -0.090400
      8 C16         -3.8650    -3.1100     2.5500 c5         1 G2K      -0.091400
      9 C17         -2.3660    -2.9170     2.2110 c5         1 G2K       0.106000
     10 C19          0.0540    -2.5310     0.5190 c3         1 G2K       0.082600
     11 C2          -3.8570     2.0830    -1.2060 cc         1 G2K       0.050900
     12 C20          2.4160    -2.0320    -0.0540 ca         1 G2K       0.136100
     13 C21          2.8850    -2.4920     1.1980 ca         1 G2K      -0.194000
     14 C22          4.2480    -2.3830     1.5240 ca         1 G2K      -0.074000
     15 C23          5.1500    -1.8160     0.6090 ca         1 G2K      -0.127000
     16 C24          4.6910    -1.3540    -0.6360 ca         1 G2K      -0.063000
     17 C25          3.3300    -1.4630    -0.9690 ca         1 G2K       0.089000
     18 C3          -2.7900     1.7200    -0.3810 cd         1 G2K       0.025400
     19 C4          -1.6090     2.6420    -0.1730 c          1 G2K       0.630300
     20 C5           0.6900     2.5010     0.8760 c3         1 G2K       0.102000
     21 C6           1.6350     1.8290    -0.1390 c3         1 G2K      -0.063100
     22 C7           3.1060     2.0160     0.2010 ca         1 G2K      -0.074300
     23 C8           3.9250     2.8430    -0.5920 ca         1 G2K      -0.103000
     24 C9           5.2880     2.9960    -0.2840 ca         1 G2K      -0.111500
     25 N1          -0.6880     2.0590     0.6700 ns         1 G2K      -0.490900
     26 N2          -2.8330     0.4370     0.2240 nd         1 G2K      -0.616300
     27 N3          -2.4500    -2.3520     0.8490 n          1 G2K      -0.416800
     28 N4          -4.8740    -0.0260    -0.8770 ns         1 G2K      -0.385400
     29 O1          -5.9490     1.4570    -2.1860 o          1 G2K      -0.553000
     30 O2          -3.9750     3.2800    -1.8450 oh         1 G2K      -0.469100
     31 O3          -1.4250     3.7430    -0.6780 o          1 G2K      -0.575100
     32 O4           1.0810    -2.1100    -0.4090 os         1 G2K      -0.297100
     33 O5          -1.5660    -2.1240    -1.2540 o          1 G2K      -0.552100
     34 Cl1          2.7830    -0.8650    -2.5370 cl         1 G2K      -0.174000
     35 H1           6.8960     2.4370     1.0550 ha         1 G2K       0.110000
     36 H2           5.4560     0.9660     2.4620 ha         1 G2K       0.110500
     37 H3           3.0480     0.6890     1.9160 ha         1 G2K       0.112500
     38 H4          -4.2990    -2.5070    -0.1870 h1         1 G2K       0.078700
     39 H5          -4.2660    -0.9560     2.4900 hc         1 G2K       0.064700
     40 H6          -5.5890    -1.9180     1.8260 hc         1 G2K       0.064700
     41 H7          -4.0460    -3.1710     3.6290 hc         1 G2K       0.062200
     42 H8          -4.2580    -4.0290     2.0990 hc         1 G2K       0.062200
     43 H9          -1.8860    -2.2070     2.8970 h1         1 G2K       0.051200
     44 H10         -1.8160    -3.8670     2.2420 h1         1 G2K       0.051200
     45 H11          0.1110    -1.9330     1.4380 h1         1 G2K       0.050200
     46 H12          0.1760    -3.5870     0.7860 h1         1 G2K       0.050200
     47 H13          2.2120    -2.9380     1.9250 ha         1 G2K       0.112000
     48 H14          4.6070    -2.7380     2.4890 ha         1 G2K       0.114000
     49 H15          6.2040    -1.7280     0.8660 ha         1 G2K       0.122000
     50 H16          5.3870    -0.9070    -1.3410 ha         1 G2K       0.132000
     51 H17          0.9890     2.2260     1.8960 h1         1 G2K       0.062200
     52 H18          0.7560     3.5940     0.7860 h1         1 G2K       0.062200
     53 H19          1.4100     0.7560    -0.1680 hc         1 G2K       0.053700
     54 H20          1.4130     2.2110    -1.1430 hc         1 G2K       0.053700
     55 H21          3.5070     3.3670    -1.4490 ha         1 G2K       0.112500
     56 H22          5.9160     3.6350    -0.9000 ha         1 G2K       0.110500
     57 H23         -0.9670     1.1490     1.0210 hn         1 G2K       0.325500
     58 H24         -5.6190    -0.6840    -1.0550 hn         1 G2K       0.337500
     59 H25         -4.8220     3.2470    -2.3480 ho         1 G2K       0.491000
     60 C18         -1.3700    -2.3420    -0.0620 c          1 G2K       0.615100
@<TRIPOS>BOND
     1     1    11 1   
     2     1    28 1   
     3     1    29 2   
     4     2     3 ar  
     5     2    24 ar  
     6     2    35 1   
     7     3     4 ar  
     8     3    36 1   
     9     4    22 ar  
    10     4    37 1   
    11     5     6 1   
    12     5    26 2   
    13     5    28 1   
    14     6     7 1   
    15     6    27 1   
    16     6    38 1   
    17     7     8 1   
    18     7    39 1   
    19     7    40 1   
    20     8     9 1   
    21     8    41 1   
    22     8    42 1   
    23     9    27 1   
    24     9    43 1   
    25     9    44 1   
    26    10    32 1   
    27    10    45 1   
    28    10    46 1   
    29    10    60 1   
    30    11    18 2   
    31    11    30 1   
    32    12    13 ar  
    33    12    17 ar  
    34    12    32 1   
    35    13    14 ar  
    36    13    47 1   
    37    14    15 ar  
    38    14    48 1   
    39    15    16 ar  
    40    15    49 1   
    41    16    17 ar  
    42    16    50 1   
    43    17    34 1   
    44    18    19 1   
    45    18    26 1   
    46    19    25 1   
    47    19    31 2   
    48    20    21 1   
    49    20    25 1   
    50    20    51 1   
    51    20    52 1   
    52    21    22 1   
    53    21    53 1   
    54    21    54 1   
    55    22    23 ar  
    56    23    24 ar  
    57    23    55 1   
    58    24    56 1   
    59    25    57 1   
    60    27    60 1   
    61    28    58 1   
    62    30    59 1   
    63    33    60 2   
@<TRIPOS>SUBSTRUCTURE
     1 G2K         1 TEMP              0 ****  ****    0 ROOT
