@<TRIPOS>MOLECULE
G2M
   51    53     1     0     0
SMALL
No Charge or Current Charge


@<TRIPOS>ATOM
      1 N1          -6.3420     1.5500     1.7590 ns         1 G2M      -0.458400
      2 C2          -5.2750     1.0610     2.4370 cc         1 G2M       0.583800
      3 N2          -5.3250     1.1930     3.7530 nv         1 G2M      -1.064200
      4 N3          -4.2060     0.4830     1.9350 nd         1 G2M      -0.670100
      5 C4          -4.2430     0.3980     0.5420 cd         1 G2M       0.089400
      6 C5          -5.2780     0.8610    -0.2270 cc         1 G2M       0.056500
      7 C6          -6.4600     1.5040     0.4040 c          1 G2M       0.526500
      8 O6          -7.4420     1.9510    -0.1760 o          1 G2M      -0.602000
      9 N7          -5.0290     0.6300    -1.5620 nc         1 G2M      -0.639000
     10 C8          -3.8370     0.0260    -1.6000 cd         1 G2M       0.432400
     11 N9          -3.3150    -0.1390    -0.3190 na         1 G2M      -0.194500
     12 PA           2.5790    -0.9040    -1.9670 p5         1 G2M       1.465800
     13 PB           3.0500     0.8250    -0.0090 p5         1 G2M       1.502400
     14 PG           3.2730     1.7400     2.6270 p5         1 G2M       1.274500
     15 C1          -2.0480    -0.7670     0.0350 c5         1 G2M       0.317300
     16 O1A          3.5970    -0.1920    -2.7960 o          1 G2M      -0.871000
     17 O1B          3.2390     2.1160    -0.7470 o          1 G2M      -0.842000
     18 O1G          2.5140     2.3110     3.7780 o          1 G2M      -0.885500
     19 C7          -2.1370    -2.2910     0.3700 c5         1 G2M      -0.170400
     20 O2A          3.0480    -2.2570    -1.5390 o          1 G2M      -0.871000
     21 O2B          4.3240     0.0870     0.2590 o          1 G2M      -0.842000
     22 O2G          4.1340     0.6500     3.1710 o          1 G2M      -0.885500
     23 C3          -1.5440    -2.9470    -0.8990 c5         1 G2M       0.117300
     24 O3          -1.0620    -4.2660    -0.6400 oh         1 G2M      -0.691000
     25 O3A          1.9860    -0.0580    -0.7790 os         1 G2M      -0.711800
     26 C3B          2.0300     1.0750     1.4870 c3         1 G2M      -0.603000
     27 C3B2         0.8870     2.0910     1.2170 c3         1 G2M      -0.018100
     28 C3B3         1.4530    -0.2550     2.0440 c3         1 G2M      -0.018100
     29 O3G          4.1010     2.8220     2.0240 o          1 G2M      -0.885500
     30 C9          -0.4230    -1.9170    -1.1940 c5         1 G2M       0.155300
     31 O4          -1.1430    -0.6700    -1.0870 os         1 G2M      -0.401000
     32 C10          0.2420    -2.0600    -2.5940 c3         1 G2M       0.239600
     33 O5           1.2260    -1.0370    -2.8400 os         1 G2M      -0.554400
     34 HN1         -7.1090     1.9580     2.2680 hn         1 G2M       0.282500
     35 HN2         -5.9040     1.9350     4.1290 hn         1 G2M       0.465500
     36 HN2A        -4.4550     1.0140     4.2400 hn         1 G2M       0.465500
     37 H8          -3.3120    -0.3120    -2.4860 h5         1 G2M       0.085100
     38 H1          -1.6520    -0.2060     0.8910 h2         1 G2M       0.081700
     39 H2          -1.5400    -2.5170     1.2610 hc         1 G2M       0.049200
     40 H2'A        -3.1620    -2.6200     0.5750 hc         1 G2M       0.049200
     41 H3          -2.2790    -2.9570    -1.7170 h1         1 G2M       0.041700
     42 HO3         -1.8340    -4.8030    -0.3480 ho         1 G2M       0.475000
     43 HC3B         0.2250     1.7320     0.4200 hc         1 G2M       0.004700
     44 HC3A         0.2740     2.2410     2.1140 hc         1 G2M       0.004700
     45 HC3C         1.2840     3.0670     0.9150 hc         1 G2M       0.004700
     46 HC3D         2.2240    -1.0320     2.1060 hc         1 G2M       0.004700
     47 HC3E         1.0340    -0.1090     3.0470 hc         1 G2M       0.004700
     48 HC3F         0.6450    -0.6360     1.4100 hc         1 G2M       0.004700
     49 H4           0.3470    -1.9670    -0.4150 h1         1 G2M       0.075700
     50 H5           0.7020    -3.0540    -2.6690 h1         1 G2M       0.010200
     51 H5'A        -0.5420    -2.0080    -3.3600 h1         1 G2M       0.010200
@<TRIPOS>BOND
     1     1     2 1   
     2     1     7 1   
     3     1    34 1   
     4     2     3 1   
     5     2     4 2   
     6     3    35 1   
     7     3    36 1   
     8     4     5 1   
     9     5     6 2   
    10     5    11 1   
    11     6     7 1   
    12     6     9 1   
    13     7     8 2   
    14     9    10 2   
    15    10    11 1   
    16    10    37 1   
    17    11    15 1   
    18    12    16 1   
    19    12    20 1   
    20    12    25 1   
    21    12    33 1   
    22    13    17 1   
    23    13    21 1   
    24    13    25 1   
    25    13    26 1   
    26    14    18 1   
    27    14    22 1   
    28    14    26 1   
    29    14    29 1   
    30    15    19 1   
    31    15    31 1   
    32    15    38 1   
    33    19    23 1   
    34    19    39 1   
    35    19    40 1   
    36    23    24 1   
    37    23    30 1   
    38    23    41 1   
    39    24    42 1   
    40    26    27 1   
    41    26    28 1   
    42    27    43 1   
    43    27    44 1   
    44    27    45 1   
    45    28    46 1   
    46    28    47 1   
    47    28    48 1   
    48    30    31 1   
    49    30    32 1   
    50    30    49 1   
    51    32    33 1   
    52    32    50 1   
    53    32    51 1   
@<TRIPOS>SUBSTRUCTURE
     1 G2M         1 TEMP              0 ****  ****    0 ROOT
