@<TRIPOS>MOLECULE
G2M
   51    53     1     0     0
SMALL
abcg2


@<TRIPOS>ATOM
      1 N1          -7.9970     1.5200    -0.4120 ns         1 G2M      -0.458400
      2 C2          -7.4900     1.3710     0.8480 cc         1 G2M       0.583800
      3 N2          -8.2620     1.7780     1.8660 nv         1 G2M      -1.064200
      4 N3          -6.3230     0.8280     1.0880 nd         1 G2M      -0.670100
      5 C4          -5.6840     0.4410    -0.0250 cd         1 G2M       0.089400
      6 C5          -6.1050     0.5420    -1.3390 cc         1 G2M       0.056500
      7 C6          -7.3740     1.1310    -1.6050 c          1 G2M       0.526500
      8 O6          -7.9250     1.3120    -2.6790 o          1 G2M      -0.602000
      9 N7          -5.1580     0.0340    -2.1890 nc         1 G2M      -0.639000
     10 C8          -4.1980    -0.3650    -1.4120 cd         1 G2M       0.432400
     11 N9          -4.4580    -0.1420    -0.0830 na         1 G2M      -0.194500
     12 PA           1.7360    -0.7550    -1.0930 p5         1 G2M       1.465800
     13 PB           4.0230     1.0760    -0.7070 p5         1 G2M       1.502400
     14 PG           6.7240     1.0180     0.7060 p5         1 G2M       1.274500
     15 C1          -3.6410    -0.5010     1.0700 c5         1 G2M       0.317300
     16 O1A          1.2690    -0.3550    -2.4640 o          1 G2M      -0.871000
     17 O1B          3.7750     2.5420    -0.9530 o          1 G2M      -0.842000
     18 O1G          7.2360     1.1400     2.1530 o          1 G2M      -0.885500
     19 C7          -3.8230    -1.9520     1.5020 c5         1 G2M      -0.170400
     20 O2A          2.4260    -2.0740    -0.9120 o          1 G2M      -0.871000
     21 O2B          4.5680     0.2270    -1.8240 o          1 G2M      -0.842000
     22 O2G          7.2590    -0.2330     0.0000 o          1 G2M      -0.885500
     23 C3          -2.6720    -2.6590     0.7950 c5         1 G2M       0.117300
     24 O3          -2.2110    -3.8260     1.4170 oh         1 G2M      -0.691000
     25 O3A          2.4780     0.4690    -0.3480 os         1 G2M      -0.711800
     26 C3B          4.8600     0.7830     0.8920 c3         1 G2M      -0.603000
     27 C3B2         4.3240     1.7810     1.9210 c3         1 G2M      -0.018100
     28 C3B3         4.6020    -0.6380     1.3890 c3         1 G2M      -0.018100
     29 O3G          6.9050     2.3080    -0.1060 o          1 G2M      -0.885500
     30 C9          -1.5910    -1.5840     0.8470 c5         1 G2M       0.155300
     31 O4          -2.2920    -0.3480     0.7270 os         1 G2M      -0.401000
     32 C10         -0.5540    -1.7060    -0.2410 c3         1 G2M       0.239600
     33 O5           0.4250    -0.7160    -0.0670 os         1 G2M      -0.554400
     34 HN1         -8.9070     1.9510    -0.5140 hn         1 G2M       0.282500
     35 HN2         -9.0540     2.3770     1.7080 hn         1 G2M       0.465500
     36 HN2A        -7.8450     1.8160     2.7800 hn         1 G2M       0.465500
     37 H8          -3.2750    -0.8090    -1.7490 h5         1 G2M       0.085100
     38 H1          -3.9210     0.1970     1.8620 h2         1 G2M       0.081700
     39 H2          -3.6800    -2.0290     2.5830 hc         1 G2M       0.049200
     40 H2'A        -4.8110    -2.3420     1.2600 hc         1 G2M       0.049200
     41 H3          -2.9420    -2.8570    -0.2530 h1         1 G2M       0.041700
     42 HO3         -2.8360    -4.5350     1.2360 ho         1 G2M       0.475000
     43 HC3B         3.2360     1.7220     2.0220 hc         1 G2M       0.004700
     44 HC3A         4.7600     1.5730     2.8990 hc         1 G2M       0.004700
     45 HC3C         4.5810     2.8060     1.6550 hc         1 G2M       0.004700
     46 HC3D         4.8200    -1.3800     0.6240 hc         1 G2M       0.004700
     47 HC3E         5.2400    -0.8470     2.2510 hc         1 G2M       0.004700
     48 HC3F         3.5640    -0.7820     1.6990 hc         1 G2M       0.004700
     49 H4          -1.0970    -1.6290     1.8270 h1         1 G2M       0.075700
     50 H5          -0.1250    -2.7140    -0.1810 h1         1 G2M       0.010200
     51 H5'A        -1.0420    -1.6260    -1.2230 h1         1 G2M       0.010200
@<TRIPOS>BOND
     1     1     2 1   
     2     1     7 1   
     3     1    34 1   
     4     2     3 1   
     5     2     4 2   
     6     3    35 1   
     7     3    36 1   
     8     4     5 1   
     9     5     6 2   
    10     5    11 1   
    11     6     7 1   
    12     6     9 1   
    13     7     8 2   
    14     9    10 2   
    15    10    11 1   
    16    10    37 1   
    17    11    15 1   
    18    12    16 1   
    19    12    20 1   
    20    12    25 1   
    21    12    33 1   
    22    13    17 1   
    23    13    21 1   
    24    13    25 1   
    25    13    26 1   
    26    14    18 1   
    27    14    22 1   
    28    14    26 1   
    29    14    29 1   
    30    15    19 1   
    31    15    31 1   
    32    15    38 1   
    33    19    23 1   
    34    19    39 1   
    35    19    40 1   
    36    23    24 1   
    37    23    30 1   
    38    23    41 1   
    39    24    42 1   
    40    26    27 1   
    41    26    28 1   
    42    27    43 1   
    43    27    44 1   
    44    27    45 1   
    45    28    46 1   
    46    28    47 1   
    47    28    48 1   
    48    30    31 1   
    49    30    32 1   
    50    30    49 1   
    51    32    33 1   
    52    32    50 1   
    53    32    51 1   
@<TRIPOS>SUBSTRUCTURE
     1 G2M         1 TEMP              0 ****  ****    0 ROOT
