@<TRIPOS>MOLECULE
G2N
   43    45     1     0     0
SMALL
bcc


@<TRIPOS>ATOM
      1 CAA          8.1030    -0.4130     0.2530 c3         1 G2N      -0.100100
      2 CAB         -2.3670    -2.1910    -1.5570 c3         1 G2N      -0.125100
      3 OAD          4.5460     1.6560    -0.3560 o          1 G2N      -0.526000
      4 CAE         -6.8170     0.8290     0.3140 ca         1 G2N      -0.119000
      5 CAF         -6.4640    -0.5110     0.3090 ca         1 G2N      -0.134500
      6 CAG         -5.8220     1.7970     0.2290 ca         1 G2N      -0.134500
      7 CAH         -5.1290    -0.8850     0.2190 ca         1 G2N      -0.107000
      8 CAI         -4.4920     1.4260     0.1400 ca         1 G2N      -0.107000
      9 CAJ          1.3480    -1.1930     0.3080 ca         1 G2N      -0.435300
     10 CAK          6.9670     0.5500     0.0090 c3         1 G2N       0.163400
     11 NAL         -1.8230     0.6420    -0.0350 ne         1 G2N      -0.530100
     12 NAM          1.7850     1.1120    -0.2240 nb         1 G2N      -0.789000
     13 NAN          3.5570    -0.3570     0.1760 ns         1 G2N      -0.553400
     14 NAO         -0.9670    -1.8990     0.4770 nu         1 G2N      -0.745600
     15 OAP          5.7400    -0.1730     0.1700 os         1 G2N      -0.453900
     16 CAQ          4.6030     0.4960    -0.0360 c          1 G2N       0.767100
     17 CAR         -2.6950    -0.2910     0.0290 cf         1 G2N       0.428900
     18 CAS          0.4730     1.3350    -0.2960 ca         1 G2N       0.765200
     19 CAT         -4.1200     0.0760     0.1330 ca         1 G2N      -0.114900
     20 CAU          2.1920    -0.1110     0.0770 ca         1 G2N       0.658200
     21 CAV         -0.0230    -0.9640     0.2190 ca         1 G2N       0.255600
     22 CAW         -0.4820     0.3270    -0.0840 ca         1 G2N      -0.177900
     23 CAX         -2.2920    -1.7490    -0.0940 c6         1 G2N       0.155200
     24 HAA          8.0630    -0.8370     1.2570 hc         1 G2N       0.047033
     25 HAAA         8.1010    -1.2290    -0.4700 hc         1 G2N       0.047033
     26 H3           9.0480     0.1190     0.1550 hc         1 G2N       0.047033
     27 HAB         -2.0750    -3.2370    -1.6550 hc         1 G2N       0.048033
     28 HABA        -3.3820    -2.0900    -1.9420 hc         1 G2N       0.048033
     29 HABB        -1.7060    -1.5890    -2.1830 hc         1 G2N       0.048033
     30 HNAC         0.7370     3.3310    -0.4710 hn         1 G2N       0.433300
     31 HNAA        -0.8900     2.8230    -0.4490 hn         1 G2N       0.433300
     32 HAF         -7.2270    -1.2760     0.3750 ha         1 G2N       0.131000
     33 HAG         -6.0840     2.8470     0.2320 ha         1 G2N       0.131000
     34 HAH         -4.8950    -1.9410     0.2190 ha         1 G2N       0.136000
     35 HAI         -3.7250     2.1860     0.0760 ha         1 G2N       0.136000
     36 HAJ          1.7370    -2.1740     0.5510 ha         1 G2N       0.140000
     37 HAK          7.0030     1.3790     0.7200 h1         1 G2N       0.050700
     38 H16          7.0230     0.9690    -0.9970 h1         1 G2N       0.050700
     39 HNAN         3.8070    -1.2990     0.4340 hn         1 G2N       0.334500
     40 H18         -0.6570    -2.8440     0.6410 hn         1 G2N       0.426800
     41 H19         -2.9550    -2.3770     0.5000 h1         1 G2N       0.068700
     42 NAC          0.0740     2.5900    -0.6220 nv         1 G2N      -0.926500
     43 HAE         -7.8580     1.1190     0.3840 ha         1 G2N       0.131000
@<TRIPOS>BOND
     1     1    10 1   
     2     1    24 1   
     3     1    25 1   
     4     1    26 1   
     5     2    23 1   
     6     2    27 1   
     7     2    28 1   
     8     2    29 1   
     9     3    16 2   
    10     4     5 ar  
    11     4     6 ar  
    12     4    43 1   
    13     5     7 ar  
    14     5    32 1   
    15     6     8 ar  
    16     6    33 1   
    17     7    19 ar  
    18     7    34 1   
    19     8    19 ar  
    20     8    35 1   
    21     9    20 ar  
    22     9    21 ar  
    23     9    36 1   
    24    10    15 1   
    25    10    37 1   
    26    10    38 1   
    27    11    17 2   
    28    11    22 1   
    29    12    18 ar  
    30    12    20 ar  
    31    13    16 1   
    32    13    20 1   
    33    13    39 1   
    34    14    21 1   
    35    14    23 1   
    36    14    40 1   
    37    15    16 1   
    38    17    19 1   
    39    17    23 1   
    40    18    22 ar  
    41    18    42 1   
    42    21    22 ar  
    43    23    41 1   
    44    30    42 1   
    45    31    42 1   
@<TRIPOS>SUBSTRUCTURE
     1 G2N         1 TEMP              0 ****  ****    0 ROOT
