@<TRIPOS>MOLECULE
G2N
   43    45     1     0     0
SMALL
No Charge or Current Charge


@<TRIPOS>ATOM
      1 CAA          8.2320    -0.4210    -0.1640 c3         1 G2N      -0.100100
      2 CAB         -2.6870    -2.3180    -1.3400 c3         1 G2N      -0.125100
      3 OAD          4.6400     1.6710     0.7150 o          1 G2N      -0.477000
      4 CAE         -6.9620     0.7520    -0.0120 ca         1 G2N      -0.101000
      5 CAF         -6.5480    -0.4420     0.5970 ca         1 G2N      -0.116500
      6 CAG         -6.0060     1.6210    -0.5610 ca         1 G2N      -0.116500
      7 CAH         -5.1830    -0.7730     0.6510 ca         1 G2N      -0.089000
      8 CAI         -4.6410     1.2920    -0.5070 ca         1 G2N      -0.089000
      9 CAJ          1.3890    -1.1440     0.1510 ca         1 G2N      -0.352000
     10 CAK          7.1000     0.5420     0.2290 c3         1 G2N       0.186600
     11 NAL         -1.8500     0.7230     0.1170 ne         1 G2N      -0.530100
     12 NAM          1.8590     1.2080    -0.0760 nb         1 G2N      -0.789000
     13 NAN          3.6420    -0.2840    -0.0320 ns         1 G2N      -0.319900
     14 NAO         -0.8780    -1.9400     0.3040 nu         1 G2N      -0.939200
     15 OAP          5.8560    -0.1350    -0.0160 os         1 G2N      -0.477100
     16 CAQ          4.6980     0.5360     0.2630 c          1 G2N       0.651100
     17 CAR         -2.7510    -0.2350     0.1590 cf         1 G2N       0.428900
     18 CAS          0.5530     1.4170    -0.0550 ca         1 G2N       0.699900
     19 CAT         -4.2070     0.0800     0.0810 ca         1 G2N      -0.114900
     20 CAU          2.2660    -0.0640     0.0450 ca         1 G2N       0.592900
     21 CAV          0.0250    -0.8900     0.1800 ca         1 G2N       0.394000
     22 CAW         -0.4450     0.4310     0.0820 ca         1 G2N      -0.112600
     23 CAX         -2.3400    -1.7610     0.0650 c6         1 G2N       0.155200
     24 HAA          8.1850    -1.3370     0.4360 hc         1 G2N       0.047033
     25 HAAA         8.1600    -0.6900    -1.2240 hc         1 G2N       0.047033
     26 H3           9.2070     0.0520     0.0050 hc         1 G2N       0.047033
     27 HAB         -2.4110    -3.3750    -1.4270 hc         1 G2N       0.048033
     28 HABA        -3.7620    -2.2430    -1.5430 hc         1 G2N       0.048033
     29 HABB        -2.1600    -1.7660    -2.1280 hc         1 G2N       0.048033
     30 HNAC         1.0800     3.3170     0.0730 hn         1 G2N       0.488500
     31 HNAA        -0.6170     3.0170     0.1590 hn         1 G2N       0.488500
     32 HAF         -7.2860    -1.1110     1.0350 ha         1 G2N       0.113000
     33 HAG         -6.3230     2.5510    -1.0260 ha         1 G2N       0.113000
     34 HAH         -4.8990    -1.6960     1.1500 ha         1 G2N       0.118000
     35 HAI         -3.9190     1.9830    -0.9390 ha         1 G2N       0.118000
     36 HAJ          1.7720    -2.1570     0.2190 ha         1 G2N       0.122000
     37 HAK          7.1990     0.8110     1.2890 h1         1 G2N       0.050700
     38 H16          7.1740     1.4580    -0.3720 h1         1 G2N       0.050700
     39 HNAN         3.8980    -1.2080    -0.3480 hn         1 G2N       0.168000
     40 H18         -0.4810    -2.8810     0.3090 hn         1 G2N       0.482000
     41 H19         -2.9000    -2.3450     0.8080 h1         1 G2N       0.068700
     42 NAC          0.2970     2.7240    -0.1640 nv         1 G2N      -1.036900
     43 HAE         -8.0180     1.0070    -0.0520 ha         1 G2N       0.113000
@<TRIPOS>BOND
     1     1    10 1   
     2     1    24 1   
     3     1    25 1   
     4     1    26 1   
     5     2    23 1   
     6     2    27 1   
     7     2    28 1   
     8     2    29 1   
     9     3    16 2   
    10     4     5 ar  
    11     4     6 ar  
    12     4    43 1   
    13     5     7 ar  
    14     5    32 1   
    15     6     8 ar  
    16     6    33 1   
    17     7    19 ar  
    18     7    34 1   
    19     8    19 ar  
    20     8    35 1   
    21     9    20 ar  
    22     9    21 ar  
    23     9    36 1   
    24    10    15 1   
    25    10    37 1   
    26    10    38 1   
    27    11    17 2   
    28    11    22 1   
    29    12    18 ar  
    30    12    20 ar  
    31    13    16 1   
    32    13    20 1   
    33    13    39 1   
    34    14    21 1   
    35    14    23 1   
    36    14    40 1   
    37    15    16 1   
    38    17    19 1   
    39    17    23 1   
    40    18    22 ar  
    41    18    42 1   
    42    21    22 ar  
    43    23    41 1   
    44    30    42 1   
    45    31    42 1   
@<TRIPOS>SUBSTRUCTURE
     1 G2N         1 TEMP              0 ****  ****    0 ROOT
