@<TRIPOS>MOLECULE
G2P
   46    48     1     0     0
SMALL
abcg2


@<TRIPOS>ATOM
      1 PG          -4.6780    -0.0940     4.4040 p5         1 G2P       1.353900
      2 O1G         -3.4010    -0.9140     4.2910 o          1 G2P      -0.958833
      3 O2G         -5.0170     0.3060     5.8430 o          1 G2P      -0.958833
      4 O3G         -5.8690    -0.6170     3.6140 o          1 G2P      -0.958833
      5 O3B         -4.2540     1.4020     3.6780 os         1 G2P      -0.734800
      6 PB          -5.1810     2.2870     2.7000 p5         1 G2P       1.531400
      7 O1B         -5.1560     1.7830     1.2770 o          1 G2P      -0.907500
      8 O2B         -6.5370     2.5520     3.3260 o          1 G2P      -0.907500
      9 C3A         -4.2750     3.8970     2.7830 c3         1 G2P      -0.761400
     10 PA          -2.7610     4.1650     1.8130 p5         1 G2P       1.436400
     11 O1A         -3.0100     4.1190     0.3280 o          1 G2P      -0.892500
     12 O2A         -2.0310     5.3710     2.3620 o          1 G2P      -0.892500
     13 O5          -1.9150     2.8150     2.2670 os         1 G2P      -0.522400
     14 C5          -0.8200     2.4120     1.4960 c3         1 G2P       0.234600
     15 C4           0.0280     1.4750     2.3370 c5         1 G2P       0.119300
     16 O4          -0.7440     0.3870     2.8400 os         1 G2P      -0.320000
     17 C3           1.1680     0.8300     1.5530 c5         1 G2P       0.079300
     18 O3           2.2040     0.3790     2.3870 oh         1 G2P      -0.717000
     19 C2           0.4540    -0.3940     0.9830 c5         1 G2P       0.097300
     20 O2           1.2620    -1.4730     0.6330 oh         1 G2P      -0.689000
     21 C1          -0.4890    -0.7810     2.1330 c5         1 G2P       0.344300
     22 N9          -1.7300    -1.3590     1.6600 na         1 G2P      -0.147500
     23 C8          -2.8980    -0.7080     1.3470 cc         1 G2P       0.567400
     24 N7          -3.7860    -1.5040     0.8350 nd         1 G2P      -0.566000
     25 C7          -3.1980    -2.7410     0.8430 cd         1 G2P       0.154500
     26 C6          -3.6940    -4.0050     0.4240 c          1 G2P       0.516500
     27 O6          -4.7790    -4.2840    -0.0680 o          1 G2P      -0.587000
     28 N1          -2.7420    -5.0100     0.6440 ns         1 G2P      -0.456400
     29 C10         -1.5010    -4.8350     1.1850 cd         1 G2P       0.606800
     30 N2          -0.7580    -5.9470     1.3700 nv         1 G2P      -1.056200
     31 N3          -1.0430    -3.6710     1.5570 nc         1 G2P      -0.622100
     32 C9          -1.9200    -2.6690     1.3690 cc         1 G2P       0.053400
     33 H3A1        -4.0690     4.1310     3.8320 hc         1 G2P       0.039700
     34 H3A2        -4.9780     4.6660     2.4440 hc         1 G2P       0.039700
     35 H5'1        -1.1470     1.9190     0.5720 h1         1 G2P      -0.012300
     36 H5'2        -0.1820     3.2560     1.1960 h1         1 G2P      -0.012300
     37 H4           0.4070     2.0350     3.1990 h1         1 G2P       0.068700
     38 H3           1.5450     1.4920     0.7620 h1         1 G2P       0.018700
     39 HA           2.6250     1.1460     2.7850 ho         1 G2P       0.479000
     40 H2          -0.1550    -0.0600     0.1310 h1         1 G2P       0.061700
     41 HB           1.7220    -1.2560    -0.1840 ho         1 G2P       0.465000
     42 H1          -0.0110    -1.5350     2.7700 h2         1 G2P       0.088700
     43 H8          -3.0480     0.3410     1.5480 h5         1 G2P       0.158100
     44 H6          -3.0280    -5.9460     0.3900 hn         1 G2P       0.269500
     45 H2N1         0.2160    -5.8000     1.5790 hn         1 G2P       0.448500
     46 H2N2        -0.9550    -6.7700     0.8260 hn         1 G2P       0.448500
@<TRIPOS>BOND
     1     1     2 1   
     2     1     3 1   
     3     1     4 1   
     4     1     5 1   
     5     5     6 1   
     6     6     7 1   
     7     6     8 1   
     8     6     9 1   
     9     9    10 1   
    10     9    33 1   
    11     9    34 1   
    12    10    11 1   
    13    10    12 1   
    14    10    13 1   
    15    13    14 1   
    16    14    15 1   
    17    14    35 1   
    18    14    36 1   
    19    15    16 1   
    20    15    17 1   
    21    15    37 1   
    22    16    21 1   
    23    17    18 1   
    24    17    19 1   
    25    17    38 1   
    26    18    39 1   
    27    19    20 1   
    28    19    21 1   
    29    19    40 1   
    30    20    41 1   
    31    21    22 1   
    32    21    42 1   
    33    22    23 1   
    34    22    32 1   
    35    23    24 2   
    36    23    43 1   
    37    24    25 1   
    38    25    26 1   
    39    25    32 2   
    40    26    27 2   
    41    26    28 1   
    42    28    29 1   
    43    28    44 1   
    44    29    30 1   
    45    29    31 2   
    46    30    45 1   
    47    30    46 1   
    48    31    32 1   
@<TRIPOS>SUBSTRUCTURE
     1 G2P         1 TEMP              0 ****  ****    0 ROOT
