@<TRIPOS>MOLECULE
G2P
   46    48     1     0     0
SMALL
No Charge or Current Charge


@<TRIPOS>ATOM
      1 PG          -4.9760     2.6170     6.3380 p5         1 G2P       1.353900
      2 O1G         -3.9120     2.4700     7.3690 o          1 G2P      -0.958833
      3 O2G         -5.7990     3.8030     6.7030 o          1 G2P      -0.958833
      4 O3G         -5.8040     1.3810     6.3650 o          1 G2P      -0.958833
      5 O3B         -4.2570     2.8540     4.9560 os         1 G2P      -0.734800
      6 PB          -5.0490     2.4810     3.6350 p5         1 G2P       1.531400
      7 O1B         -5.0240     1.0320     3.2730 o          1 G2P      -0.907500
      8 O2B         -6.4270     3.0660     3.5850 o          1 G2P      -0.907500
      9 C3A         -4.1320     3.5150     2.5100 c3         1 G2P      -0.761400
     10 PA          -2.7650     2.5320     1.9670 p5         1 G2P       1.436400
     11 O1A         -3.2060     1.4970     0.9870 o          1 G2P      -0.892500
     12 O2A         -1.8600     3.5130     1.2950 o          1 G2P      -0.892500
     13 O5          -2.1060     1.9670     3.3240 os         1 G2P      -0.522400
     14 C5          -0.6880     1.8030     3.4940 c3         1 G2P       0.234600
     15 C4          -0.0650     0.6500     2.6360 c5         1 G2P       0.119300
     16 O4          -1.0540    -0.3070     2.1860 os         1 G2P      -0.320000
     17 C3           0.7390     1.0940     1.3510 c5         1 G2P       0.079300
     18 O3           2.0770     0.5610     1.3450 oh         1 G2P      -0.717000
     19 C2          -0.0890     0.4440     0.2030 c5         1 G2P       0.097300
     20 O2           0.7420     0.1970    -0.9380 oh         1 G2P      -0.689000
     21 C1          -0.5920    -0.8380     0.9360 c5         1 G2P       0.344300
     22 N9          -1.6460    -1.6230     0.2990 na         1 G2P      -0.147500
     23 C8          -2.6220    -1.1550    -0.5630 cc         1 G2P       0.567400
     24 N7          -3.3790    -2.1530    -1.0250 nd         1 G2P      -0.566000
     25 C7          -2.8660    -3.3040    -0.4440 cd         1 G2P       0.154500
     26 C6          -3.2790    -4.7360    -0.5750 c          1 G2P       0.516500
     27 O6          -4.2080    -5.1570    -1.2530 o          1 G2P      -0.587000
     28 N1          -2.4870    -5.5710     0.1650 ns         1 G2P      -0.456400
     29 C10         -1.4510    -5.1390     0.9220 cd         1 G2P       0.606800
     30 N2          -0.7670    -6.0700     1.5760 nv         1 G2P      -1.056200
     31 N3          -1.0430    -3.8980     1.0740 nc         1 G2P      -0.622100
     32 C9          -1.7970    -2.9850     0.3610 cc         1 G2P       0.053400
     33 H3A1        -3.7820     4.4210     3.0090 hc         1 G2P       0.039700
     34 H3A2        -4.7500     3.7830     1.6500 hc         1 G2P       0.039700
     35 H5'1        -0.1640     2.7430     3.2780 h1         1 G2P      -0.012300
     36 H5'2        -0.4870     1.5750     4.5480 h1         1 G2P      -0.012300
     37 H4           0.6200     0.1110     3.3050 h1         1 G2P       0.068700
     38 H3           0.7690     2.1860     1.2420 h1         1 G2P       0.018700
     39 HA           2.6170     1.1040     1.9670 ho         1 G2P       0.479000
     40 H2          -0.9270     1.0950    -0.0750 h1         1 G2P       0.061700
     41 HB           1.6530     0.2090    -0.5480 ho         1 G2P       0.465000
     42 H1           0.2460    -1.5230     1.1140 h2         1 G2P       0.088700
     43 H8          -2.7200    -0.1090    -0.8260 h5         1 G2P       0.158100
     44 H6          -2.7140    -6.5520     0.1340 hn         1 G2P       0.269500
     45 H2N1         0.1160    -5.7660     1.9710 hn         1 G2P       0.448500
     46 H2N2        -0.8110    -7.0240     1.2400 hn         1 G2P       0.448500
@<TRIPOS>BOND
     1     1     2 1   
     2     1     3 1   
     3     1     4 1   
     4     1     5 1   
     5     5     6 1   
     6     6     7 1   
     7     6     8 1   
     8     6     9 1   
     9     9    10 1   
    10     9    33 1   
    11     9    34 1   
    12    10    11 1   
    13    10    12 1   
    14    10    13 1   
    15    13    14 1   
    16    14    15 1   
    17    14    35 1   
    18    14    36 1   
    19    15    16 1   
    20    15    17 1   
    21    15    37 1   
    22    16    21 1   
    23    17    18 1   
    24    17    19 1   
    25    17    38 1   
    26    18    39 1   
    27    19    20 1   
    28    19    21 1   
    29    19    40 1   
    30    20    41 1   
    31    21    22 1   
    32    21    42 1   
    33    22    23 1   
    34    22    32 1   
    35    23    24 2   
    36    23    43 1   
    37    24    25 1   
    38    25    26 1   
    39    25    32 2   
    40    26    27 2   
    41    26    28 1   
    42    28    29 1   
    43    28    44 1   
    44    29    30 1   
    45    29    31 2   
    46    30    45 1   
    47    30    46 1   
    48    31    32 1   
@<TRIPOS>SUBSTRUCTURE
     1 G2P         1 TEMP              0 ****  ****    0 ROOT
