@<TRIPOS>MOLECULE
G2Q
   57    60     1     0     0
SMALL
No Charge or Current Charge


@<TRIPOS>ATOM
      1 N1          -6.2940    -1.6100     0.9110 nc         1 G2Q      -0.813100
      2 C2          -5.7920    -1.3210    -0.2460 cd         1 G2Q       0.888100
      3 N2          -6.5300    -1.3930    -1.3060 nv         1 G2Q      -1.068200
      4 N3          -4.4930    -1.0360    -0.4280 na         1 G2Q      -0.916200
      5 C4          -3.6530    -0.9460     0.6610 cc         1 G2Q       0.154000
      6 C5          -4.0790    -1.2840     1.8910 cd         1 G2Q       0.129500
      7 C6          -5.5220    -1.6270     2.0570 c          1 G2Q       0.664000
      8 O6          -6.0280    -1.9260     3.1300 o          1 G2Q      -0.549100
      9 N7          -2.9710    -1.2490     2.7400 nd         1 G2Q      -0.592000
     10 C8          -1.9260    -0.9290     1.9530 cc         1 G2Q       0.465400
     11 N9          -2.3160    -0.7300     0.6330 na         1 G2Q      -0.216500
     12 PA           0.9150     2.4100     2.1660 p5         1 G2Q       1.450800
     13 PB           2.4960     0.3770     2.6420 p5         1 G2Q       1.450800
     14 C1          -1.4530    -0.5250    -0.5280 c5         1 G2Q       0.322300
     15 O1A         -0.2560     1.7260     2.7900 o          1 G2Q      -0.845500
     16 O1B          1.6480    -0.8500     2.6610 o          1 G2Q      -0.847000
     17 C1X          4.8050    -0.0720    -1.7170 c5         1 G2Q       0.130600
     18 C7          -2.0300     0.4060    -1.6620 c5         1 G2Q       0.061300
     19 O2          -2.7800    -0.2850    -2.6870 oh         1 G2Q      -0.741000
     20 O2A          1.4890     3.4750     3.0420 o          1 G2Q      -0.845500
     21 O2B          2.7410     0.9110     4.0150 o          1 G2Q      -0.847000
     22 C2X          4.7090    -1.5940    -2.0910 c5         1 G2Q       0.078300
     23 O2X          4.4560    -1.8150    -3.4990 oh         1 G2Q      -0.734000
     24 C3          -0.7270     1.0470    -2.2160 c5         1 G2Q       0.107300
     25 O3          -0.0450     0.1370    -3.0890 oh         1 G2Q      -0.709000
     26 O3A          2.0190     1.4480     1.5850 os         1 G2Q      -0.684800
     27 C3X          3.4990    -2.1150    -1.2260 c5         1 G2Q       0.142300
     28 O3X          2.4030    -2.3450    -2.1080 oh         1 G2Q      -0.715000
     29 C9           0.0240     1.3070    -0.8690 c5         1 G2Q       0.154300
     30 O4          -0.2160     0.0970    -0.1070 os         1 G2Q      -0.395000
     31 C4X          3.2470    -0.9370    -0.2290 c5         1 G2Q       0.147300
     32 O4X          3.5810     0.2280    -1.0230 os         1 G2Q      -0.411000
     33 C10         -0.5200     2.5500    -0.0990 c3         1 G2Q       0.210600
     34 O5           0.4730     3.1080     0.7770 os         1 G2Q      -0.560400
     35 C5X          4.1300    -1.0440     1.0590 c3         1 G2Q       0.222600
     36 O5X          3.9290     0.0500     1.9730 os         1 G2Q      -0.559400
     37 HN2         -7.4160    -1.8390    -1.1170 hn         1 G2Q       0.488000
     38 HN2A        -6.0590    -1.7190    -2.1360 hn         1 G2Q       0.488000
     39 HN3         -4.1540    -0.8480    -1.3680 hn         1 G2Q       0.507000
     40 H8          -0.8920    -0.8390     2.2680 h5         1 G2Q       0.131100
     41 H1          -1.2330    -1.5210    -0.9300 h2         1 G2Q       0.068700
     42 H2          -2.6600     1.1840    -1.2040 h1         1 G2Q       0.083700
     43 HO2         -3.0590     0.3850    -3.3600 ho         1 G2Q       0.510000
     44 H2X          5.6360    -2.1040    -1.7890 h1         1 G2Q       0.057700
     45 HO2X         5.2720    -1.5510    -3.9900 ho         1 G2Q       0.499000
     46 H3          -0.9370     1.9890    -2.7430 h1         1 G2Q       0.058700
     47 HO3         -0.7330    -0.5170    -3.3570 ho         1 G2Q       0.497000
     48 H3X          3.7570    -3.0410    -0.6930 h1         1 G2Q       0.054700
     49 HO3X         2.8490    -2.1620    -2.9800 ho         1 G2Q       0.500000
     50 H4           1.1020     1.4370    -1.0330 h1         1 G2Q       0.110700
     51 H4X          2.1900    -0.8940     0.0590 h1         1 G2Q       0.096700
     52 H5          -0.8080     3.3130    -0.8330 h1         1 G2Q       0.016700
     53 H5'A        -1.4280     2.2820     0.4580 h1         1 G2Q       0.016700
     54 H5X          3.8920    -1.9910     1.5610 h1         1 G2Q       0.011700
     55 H5XA         5.1890    -1.1000     0.7790 h1         1 G2Q       0.011700
     56 H1X          5.6540     0.1250    -1.0490 h1         1 G2Q       0.030700
     57 H1XA         4.8970     0.5820    -2.5940 h1         1 G2Q       0.030700
@<TRIPOS>BOND
     1     1     2 2   
     2     1     7 1   
     3     2     3 1   
     4     2     4 1   
     5     3    37 1   
     6     3    38 1   
     7     4     5 1   
     8     4    39 1   
     9     5     6 2   
    10     5    11 1   
    11     6     7 1   
    12     6     9 1   
    13     7     8 2   
    14     9    10 2   
    15    10    11 1   
    16    10    40 1   
    17    11    14 1   
    18    12    15 1   
    19    12    20 1   
    20    12    26 1   
    21    12    34 1   
    22    13    16 1   
    23    13    21 1   
    24    13    26 1   
    25    13    36 1   
    26    14    18 1   
    27    14    30 1   
    28    14    41 1   
    29    17    22 1   
    30    17    32 1   
    31    17    56 1   
    32    17    57 1   
    33    18    19 1   
    34    18    24 1   
    35    18    42 1   
    36    19    43 1   
    37    22    23 1   
    38    22    27 1   
    39    22    44 1   
    40    23    45 1   
    41    24    25 1   
    42    24    29 1   
    43    24    46 1   
    44    25    47 1   
    45    27    28 1   
    46    27    31 1   
    47    27    48 1   
    48    28    49 1   
    49    29    30 1   
    50    29    33 1   
    51    29    50 1   
    52    31    32 1   
    53    31    35 1   
    54    31    51 1   
    55    33    34 1   
    56    33    52 1   
    57    33    53 1   
    58    35    36 1   
    59    35    54 1   
    60    35    55 1   
@<TRIPOS>SUBSTRUCTURE
     1 G2Q         1 TEMP              0 ****  ****    0 ROOT
