@<TRIPOS>MOLECULE
G2Q
   57    60     1     0     0
SMALL
abcg2


@<TRIPOS>ATOM
      1 N1          -6.3320    -2.8530     1.1300 nc         1 G2Q      -0.813100
      2 C2          -6.7040    -2.0310     0.1860 cd         1 G2Q       0.888100
      3 N2          -7.9890    -1.9880    -0.1960 nv         1 G2Q      -1.068200
      4 N3          -5.8600    -1.1610    -0.4460 na         1 G2Q      -0.916200
      5 C4          -4.5700    -1.1740    -0.0210 cc         1 G2Q       0.154000
      6 C5          -4.1180    -1.9930     0.9780 cd         1 G2Q       0.129500
      7 C6          -5.0460    -2.9020     1.6140 c          1 G2Q       0.664000
      8 O6          -4.7370    -3.6720     2.5160 o          1 G2Q      -0.549100
      9 N7          -2.7800    -1.7720     1.1760 nd         1 G2Q      -0.592000
     10 C8          -2.4500    -0.8530     0.3190 cc         1 G2Q       0.465400
     11 N9          -3.5160    -0.4500    -0.4540 na         1 G2Q      -0.216500
     12 PA           0.9890     2.3490     0.7190 p5         1 G2Q       1.450800
     13 PB           2.9900     0.4560     1.5970 p5         1 G2Q       1.450800
     14 C1          -3.5330     0.5280    -1.5380 c5         1 G2Q       0.322300
     15 O1A          0.4430     2.3940     2.1100 o          1 G2Q      -0.845500
     16 O1B          2.3720    -0.6420     2.4040 o          1 G2Q      -0.847000
     17 C1X          6.8830    -1.8570    -1.8190 c5         1 G2Q       0.130600
     18 C7          -4.2560     1.8220    -1.1390 c5         1 G2Q       0.061300
     19 O2          -5.5950     1.7520    -1.5460 oh         1 G2Q      -0.741000
     20 O2A          1.6600     3.5480     0.1260 o          1 G2Q      -0.845500
     21 O2B          3.6890     1.5940     2.2720 o          1 G2Q      -0.847000
     22 C2X          7.6940    -2.0950    -0.5480 c5         1 G2Q       0.078300
     23 O2X          8.8380    -2.8880    -0.7030 oh         1 G2Q      -0.734000
     24 C3          -3.4160     2.8850    -1.8570 c5         1 G2Q       0.107300
     25 O3          -3.7560     2.9620    -3.2150 oh         1 G2Q      -0.709000
     26 O3A          1.9160     1.0180     0.4900 os         1 G2Q      -0.684800
     27 C3X          6.6640    -2.8080     0.3270 c5         1 G2Q       0.142300
     28 O3X          6.5160    -4.1570    -0.0440 oh         1 G2Q      -0.715000
     29 C9          -2.0270     2.2780    -1.7410 c5         1 G2Q       0.154300
     30 O4          -2.2330     0.8670    -1.8710 os         1 G2Q      -0.395000
     31 C4X          5.3890    -2.0590    -0.0410 c5         1 G2Q       0.147300
     32 O4X          5.5680    -1.5850    -1.3740 os         1 G2Q      -0.411000
     33 C10         -1.3430     2.6140    -0.4280 c3         1 G2Q       0.210600
     34 O5          -0.1800     1.8300    -0.3250 os         1 G2Q      -0.560400
     35 C5X          5.1130    -0.9040     0.9020 c3         1 G2Q       0.222600
     36 O5X          3.9740    -0.2040     0.4520 os         1 G2Q      -0.559400
     37 HN2         -8.6020    -2.7030     0.1550 hn         1 G2Q       0.488000
     38 HN2A        -8.2670    -1.5320    -1.0480 hn         1 G2Q       0.488000
     39 HN3         -6.2060    -0.4540    -1.0820 hn         1 G2Q       0.507000
     40 H8          -1.4670    -0.4270     0.1940 h5         1 G2Q       0.131100
     41 H1          -4.0380     0.0530    -2.3880 h2         1 G2Q       0.068700
     42 H2          -4.1780     1.9680    -0.0560 h1         1 G2Q       0.083700
     43 HO2         -6.1200     2.3570    -1.0120 ho         1 G2Q       0.510000
     44 H2X          7.9380    -1.1300    -0.0840 h1         1 G2Q       0.057700
     45 HO2X         9.4640    -2.4300    -1.2720 ho         1 G2Q       0.499000
     46 H3          -3.4840     3.8600    -1.3590 h1         1 G2Q       0.058700
     47 HO3         -4.7160     3.0070    -3.2840 ho         1 G2Q       0.497000
     48 H3X          6.9000    -2.7120     1.3960 h1         1 G2Q       0.054700
     49 HO3X         7.3910    -4.5580    -0.0730 ho         1 G2Q       0.500000
     50 H4          -1.3840     2.5880    -2.5680 h1         1 G2Q       0.110700
     51 H4X          4.5290    -2.7380    -0.0120 h1         1 G2Q       0.096700
     52 H5          -1.1210     3.6880    -0.4360 h1         1 G2Q       0.016700
     53 H5'A        -2.0110     2.4320     0.4230 h1         1 G2Q       0.016700
     54 H5X          4.9690    -1.3200     1.9060 h1         1 G2Q       0.011700
     55 H5XA         5.9770    -0.2300     0.9530 h1         1 G2Q       0.011700
     56 H1X          7.2470    -1.0080    -2.4020 h1         1 G2Q       0.030700
     57 H1XA         6.9160    -2.7480    -2.4580 h1         1 G2Q       0.030700
@<TRIPOS>BOND
     1     1     2 2   
     2     1     7 1   
     3     2     3 1   
     4     2     4 1   
     5     3    37 1   
     6     3    38 1   
     7     4     5 1   
     8     4    39 1   
     9     5     6 2   
    10     5    11 1   
    11     6     7 1   
    12     6     9 1   
    13     7     8 2   
    14     9    10 2   
    15    10    11 1   
    16    10    40 1   
    17    11    14 1   
    18    12    15 1   
    19    12    20 1   
    20    12    26 1   
    21    12    34 1   
    22    13    16 1   
    23    13    21 1   
    24    13    26 1   
    25    13    36 1   
    26    14    18 1   
    27    14    30 1   
    28    14    41 1   
    29    17    22 1   
    30    17    32 1   
    31    17    56 1   
    32    17    57 1   
    33    18    19 1   
    34    18    24 1   
    35    18    42 1   
    36    19    43 1   
    37    22    23 1   
    38    22    27 1   
    39    22    44 1   
    40    23    45 1   
    41    24    25 1   
    42    24    29 1   
    43    24    46 1   
    44    25    47 1   
    45    27    28 1   
    46    27    31 1   
    47    27    48 1   
    48    28    49 1   
    49    29    30 1   
    50    29    33 1   
    51    29    50 1   
    52    31    32 1   
    53    31    35 1   
    54    31    51 1   
    55    33    34 1   
    56    33    52 1   
    57    33    53 1   
    58    35    36 1   
    59    35    54 1   
    60    35    55 1   
@<TRIPOS>SUBSTRUCTURE
     1 G2Q         1 TEMP              0 ****  ****    0 ROOT
