@<TRIPOS>MOLECULE
G2R
   57    60     1     0     0
SMALL
abcg2


@<TRIPOS>ATOM
      1 O6           2.1500     5.6080     0.0710 o          1 G2R      -0.541000
      2 C6           1.8570     4.6700    -0.6510 c          1 G2R       0.521500
      3 N1           1.1370     4.8820    -1.8350 ns         1 G2R      -0.459400
      4 C2           0.7460     3.9250    -2.7270 cc         1 G2R       0.701800
      5 N2           0.0900     4.3440    -3.8200 nv         1 G2R      -1.056200
      6 N3           1.0150     2.6530    -2.5700 nd         1 G2R      -0.693100
      7 C4           1.7040     2.3980    -1.4480 cd         1 G2R       0.097400
      8 C5           2.1440     3.2860    -0.4840 cc         1 G2R       0.103500
      9 N7           2.8030     2.6200     0.5170 nc         1 G2R      -0.627000
     10 C8           2.7660     1.3710     0.1640 cd         1 G2R       0.474400
     11 N9           2.1080     1.1730    -1.0230 na         1 G2R      -0.171500
     12 C1           1.8610    -0.0690    -1.7410 c5         1 G2R       0.290300
     13 O4           1.9950    -1.1410    -0.8630 os         1 G2R      -0.457000
     14 C7           2.8660    -0.3020    -2.8860 c5         1 G2R       0.086300
     15 O2           2.2900    -1.0910    -3.8930 oh         1 G2R      -0.703000
     16 C3           3.9380    -1.1380    -2.1840 c5         1 G2R       0.161300
     17 O3           4.7810    -0.3030    -1.4370 oh         1 G2R      -0.719000
     18 C9           3.0690    -1.9980    -1.2710 c5         1 G2R       0.149300
     19 C10          3.7410    -2.5610    -0.0350 c3         1 G2R       0.238600
     20 O5           4.7430    -3.4450    -0.4870 os         1 G2R      -0.607400
     21 PA           5.7060    -4.2240     0.5900 p5         1 G2R       1.476800
     22 O1A          6.6460    -5.0370    -0.2430 o          1 G2R      -0.847500
     23 O2A          4.8720    -4.8500     1.6630 o          1 G2R      -0.847500
     24 O3A          6.4440    -2.8950     1.2160 os         1 G2R      -0.741800
     25 PB           7.7850    -2.7910     2.1570 p5         1 G2R       1.469800
     26 O2B          7.4990    -1.7840     3.2230 o          1 G2R      -0.842000
     27 O1B          8.2860    -4.1640     2.4750 o          1 G2R      -0.842000
     28 O5X          8.8060    -2.0300     1.1230 os         1 G2R      -0.611400
     29 C5X          9.3400    -2.7050     0.0010 c3         1 G2R       0.209600
     30 C4X          9.2220    -1.7960    -1.2170 c5         1 G2R       0.117300
     31 O4X          9.9930    -2.3580    -2.2740 os         1 G2R      -0.475000
     32 C1X          9.1670    -2.6860    -3.3710 c5         1 G2R       0.125600
     33 C2X          7.7440    -2.7440    -2.8160 c5         1 G2R       0.128300
     34 O2X          6.7480    -2.5870    -3.7870 oh         1 G2R      -0.701000
     35 C3X          7.7890    -1.6700    -1.7270 c5         1 G2R       0.099300
     36 O3X          7.5290    -0.4220    -2.3600 oh         1 G2R      -0.777000
     37 HN1          0.9010     5.8460    -2.0340 hn         1 G2R       0.305500
     38 HN21        -0.3320     3.6400    -4.4020 hn         1 G2R       0.486500
     39 HN22        -0.3400     5.2540    -3.8440 hn         1 G2R       0.486500
     40 H8           3.1870     0.5560     0.7290 h5         1 G2R       0.103100
     41 H1           0.8370    -0.0090    -2.1230 h2         1 G2R       0.067700
     42 H2           3.2650     0.6410    -3.2760 h1         1 G2R       0.058700
     43 HO2          1.6070    -0.5810    -4.3390 ho         1 G2R       0.492000
     44 H3           4.4930    -1.7590    -2.8910 h1         1 G2R       0.099700
     45 HO3          5.6420    -0.2470    -1.8780 ho         1 G2R       0.535000
     46 H4           2.6570    -2.8280    -1.8560 h1         1 G2R       0.066700
     47 H5'1         2.9990    -3.0850     0.5770 h1         1 G2R       0.041700
     48 H5'2         4.1610    -1.7530     0.5700 h1         1 G2R       0.041700
     49 H5X1        10.3980    -2.9260     0.1780 h1         1 G2R       0.046700
     50 H5X2         8.8370    -3.6580    -0.1890 h1         1 G2R       0.046700
     51 H4X          9.6310    -0.8120    -0.9540 h1         1 G2R       0.051700
     52 H1X1         9.4920    -3.6390    -3.7940 h1         1 G2R       0.024700
     53 H1X2         9.2400    -1.9260    -4.1620 h1         1 G2R       0.024700
     54 H2X          7.5590    -3.7070    -2.3360 h1         1 G2R       0.153700
     55 HO2X         6.8420    -1.7130    -4.1820 ho         1 G2R       0.487000
     56 H3X          7.0580    -1.8480    -0.9370 h1         1 G2R       0.133700
     57 HO3X         7.8680     0.2890    -1.8050 ho         1 G2R       0.514000
@<TRIPOS>BOND
     1     1     2 2   
     2     2     3 1   
     3     2     8 1   
     4     3     4 1   
     5     3    37 1   
     6     4     5 1   
     7     4     6 2   
     8     5    38 1   
     9     5    39 1   
    10     6     7 1   
    11     7     8 2   
    12     7    11 1   
    13     8     9 1   
    14     9    10 2   
    15    10    11 1   
    16    10    40 1   
    17    11    12 1   
    18    12    13 1   
    19    12    14 1   
    20    12    41 1   
    21    13    18 1   
    22    14    15 1   
    23    14    16 1   
    24    14    42 1   
    25    15    43 1   
    26    16    17 1   
    27    16    18 1   
    28    16    44 1   
    29    17    45 1   
    30    18    19 1   
    31    18    46 1   
    32    19    20 1   
    33    19    47 1   
    34    19    48 1   
    35    20    21 1   
    36    21    22 1   
    37    21    23 1   
    38    21    24 1   
    39    24    25 1   
    40    25    26 1   
    41    25    27 1   
    42    25    28 1   
    43    28    29 1   
    44    29    30 1   
    45    29    49 1   
    46    29    50 1   
    47    30    31 1   
    48    30    35 1   
    49    30    51 1   
    50    31    32 1   
    51    32    33 1   
    52    32    52 1   
    53    32    53 1   
    54    33    34 1   
    55    33    35 1   
    56    33    54 1   
    57    34    55 1   
    58    35    36 1   
    59    35    56 1   
    60    36    57 1   
@<TRIPOS>SUBSTRUCTURE
     1 G2R         1 TEMP              0 ****  ****    0 ROOT
