@<TRIPOS>MOLECULE
G2R
   57    60     1     0     0
SMALL
No Charge or Current Charge


@<TRIPOS>ATOM
      1 O6           2.3120     6.1350    -0.6230 o          1 G2R      -0.541000
      2 C6           1.8450     5.1350    -1.1540 c          1 G2R       0.521500
      3 N1           0.8940     5.2130    -2.1240 ns         1 G2R      -0.459400
      4 C2           0.3600     4.1320    -2.7370 cc         1 G2R       0.701800
      5 N2          -0.5550     4.3840    -3.6540 nv         1 G2R      -1.056200
      6 N3           0.6430     2.8670    -2.5190 nd         1 G2R      -0.693100
      7 C4           1.6120     2.6970    -1.5300 cd         1 G2R       0.097400
      8 C5           2.2120     3.7270    -0.8550 cc         1 G2R       0.103500
      9 N7           3.1260     3.2460     0.0530 nc         1 G2R      -0.627000
     10 C8           3.0830     1.9150    -0.0750 cd         1 G2R       0.474400
     11 N9           2.1530     1.5330    -1.0390 na         1 G2R      -0.171500
     12 C1           1.8290     0.1730    -1.4580 c5         1 G2R       0.290300
     13 O4           2.1210    -0.7480    -0.3730 os         1 G2R      -0.457000
     14 C7           2.6160    -0.3530    -2.7200 c5         1 G2R       0.086300
     15 O2           1.8180    -1.2320    -3.5410 oh         1 G2R      -0.703000
     16 C3           3.7920    -1.1170    -2.0300 c5         1 G2R       0.161300
     17 O3           4.8120    -0.2260    -1.5420 oh         1 G2R      -0.719000
     18 C9           2.9730    -1.8010    -0.8900 c5         1 G2R       0.149300
     19 C10          3.7930    -2.4670     0.2410 c3         1 G2R       0.238600
     20 O5           4.4770    -3.5980    -0.3130 os         1 G2R      -0.607400
     21 PA           5.4410    -4.4640     0.6380 p5         1 G2R       1.476800
     22 O1A          5.8480    -5.6900    -0.1080 o          1 G2R      -0.847500
     23 O2A          4.7520    -4.7610     1.9270 o          1 G2R      -0.847500
     24 O3A          6.5870    -3.3900     0.7230 os         1 G2R      -0.741800
     25 PB           7.6880    -3.7770     1.7770 p5         1 G2R       1.469800
     26 O2B          7.2920    -3.4250     3.1730 o          1 G2R      -0.842000
     27 O1B          8.2360    -5.1590     1.6600 o          1 G2R      -0.842000
     28 O5X          8.7970    -2.7220     1.2710 os         1 G2R      -0.611400
     29 C5X          9.3620    -2.8450    -0.0450 c3         1 G2R       0.209600
     30 C4X          8.7790    -1.7110    -0.9550 c5         1 G2R       0.117300
     31 O4X          9.8150    -1.1360    -1.7840 os         1 G2R      -0.475000
     32 C1X         10.0440    -2.0590    -2.8770 c5         1 G2R       0.125600
     33 C2X          8.6820    -2.8170    -3.0890 c5         1 G2R       0.128300
     34 O2X          8.1210    -2.6440    -4.3960 oh         1 G2R      -0.701000
     35 C3X          7.7430    -2.1300    -2.0400 c5         1 G2R       0.099300
     36 O3X          7.1200    -0.9550    -2.6130 oh         1 G2R      -0.777000
     37 HN1          0.6010     6.1340    -2.4040 hn         1 G2R       0.305500
     38 HN21        -1.0700     3.5620    -3.9460 hn         1 G2R       0.486500
     39 HN22        -1.1090     5.2240    -3.5360 hn         1 G2R       0.486500
     40 H8           3.6700     1.1910     0.4790 h5         1 G2R       0.103100
     41 H1           0.7500     0.1790    -1.6580 h2         1 G2R       0.067700
     42 H2           2.9950     0.4830    -3.3270 h1         1 G2R       0.058700
     43 HO2          1.1890    -0.6690    -4.0520 ho         1 G2R       0.492000
     44 H3           4.2260    -1.8700    -2.7040 h1         1 G2R       0.099700
     45 HO3          5.6780    -0.5330    -1.9490 ho         1 G2R       0.535000
     46 H4           2.3200    -2.5760    -1.3150 h1         1 G2R       0.066700
     47 H5'1         3.1040    -2.7810     1.0370 h1         1 G2R       0.041700
     48 H5'2         4.4990    -1.7400     0.6630 h1         1 G2R       0.041700
     49 H5X1        10.4520    -2.7310     0.0130 h1         1 G2R       0.046700
     50 H5X2         9.1550    -3.8280    -0.4880 h1         1 G2R       0.046700
     51 H4X          8.3780    -0.9210    -0.3060 h1         1 G2R       0.051700
     52 H1X1        10.8470    -2.7540    -2.5950 h1         1 G2R       0.024700
     53 H1X2        10.3640    -1.4950    -3.7630 h1         1 G2R       0.024700
     54 H2X          8.8150    -3.8860    -2.8550 h1         1 G2R       0.153700
     55 HO2X         7.4540    -1.9270    -4.2520 ho         1 G2R       0.487000
     56 H3X          6.9920    -2.8330    -1.6490 h1         1 G2R       0.133700
     57 HO3X         7.8490    -0.2830    -2.6660 ho         1 G2R       0.514000
@<TRIPOS>BOND
     1     1     2 2   
     2     2     3 1   
     3     2     8 1   
     4     3     4 1   
     5     3    37 1   
     6     4     5 1   
     7     4     6 2   
     8     5    38 1   
     9     5    39 1   
    10     6     7 1   
    11     7     8 2   
    12     7    11 1   
    13     8     9 1   
    14     9    10 2   
    15    10    11 1   
    16    10    40 1   
    17    11    12 1   
    18    12    13 1   
    19    12    14 1   
    20    12    41 1   
    21    13    18 1   
    22    14    15 1   
    23    14    16 1   
    24    14    42 1   
    25    15    43 1   
    26    16    17 1   
    27    16    18 1   
    28    16    44 1   
    29    17    45 1   
    30    18    19 1   
    31    18    46 1   
    32    19    20 1   
    33    19    47 1   
    34    19    48 1   
    35    20    21 1   
    36    21    22 1   
    37    21    23 1   
    38    21    24 1   
    39    24    25 1   
    40    25    26 1   
    41    25    27 1   
    42    25    28 1   
    43    28    29 1   
    44    29    30 1   
    45    29    49 1   
    46    29    50 1   
    47    30    31 1   
    48    30    35 1   
    49    30    51 1   
    50    31    32 1   
    51    32    33 1   
    52    32    52 1   
    53    32    53 1   
    54    33    34 1   
    55    33    35 1   
    56    33    54 1   
    57    34    55 1   
    58    35    36 1   
    59    35    56 1   
    60    36    57 1   
@<TRIPOS>SUBSTRUCTURE
     1 G2R         1 TEMP              0 ****  ****    0 ROOT
