@<TRIPOS>MOLECULE
G2U
   39    41     1     0     0
SMALL
abcg2


@<TRIPOS>ATOM
      1 C01          5.9580    -9.1520    28.3540 c3         1 G2U      -0.190100
      2 C02          6.8000    -8.7520    27.1680 c          1 G2U       0.614700
      3 C04          7.7140    -7.6210    27.2920 cc         1 G2U      -0.263600
      4 C05          8.6420    -7.2920    26.3010 cd         1 G2U      -0.068300
      5 C06          8.9390    -7.8930    24.9740 c3         1 G2U      -0.033800
      6 C08          8.9190    -5.8550    27.9970 cd         1 G2U      -0.225500
      7 C09          7.8900    -6.6890    28.3700 cc         1 G2U      -0.067300
      8 C10          7.0970    -6.5500    29.6280 c3         1 G2U      -0.025800
      9 C11          9.5610    -4.7320    28.6540 cd         1 G2U       0.374500
     10 C12          9.6340    -4.4840    29.9950 cc         1 G2U      -0.258000
     11 C14         10.7490    -2.8760    28.5820 cc         1 G2U       0.419700
     12 C15         11.4610    -1.6930    28.0060 c3         1 G2U       0.080700
     13 C17         13.6260    -1.7410    29.2040 c          1 G2U       0.555000
     14 C19         14.3410    -0.8120    30.1590 c5         1 G2U       0.010000
     15 C21         12.2800     0.0880    29.5760 c          1 G2U       0.620000
     16 N07          9.3410    -6.2410    26.7490 na         1 G2U      -0.078000
     17 N16         12.4290    -1.1440    28.9160 n          1 G2U      -0.405400
     18 N20         13.4020     0.2680    30.2910 ns         1 G2U      -0.520900
     19 N23         10.2130    -3.8090    27.8730 nd         1 G2U      -0.657000
     20 O03          6.7160    -9.3840    26.1260 o          1 G2U      -0.561100
     21 O22         11.3090     0.8030    29.4810 o          1 G2U      -0.535000
     22 S13         10.5120    -3.0430    30.2820 ss         1 G2U      -0.005400
     23 H012         5.5080   -10.1270    28.1770 hc         1 G2U       0.056367
     24 H013         6.5370    -9.1870    29.2760 hc         1 G2U       0.056367
     25 H011         5.1530    -8.4300    28.5060 hc         1 G2U       0.056367
     26 H061         9.1960    -8.9480    25.0630 hc         1 G2U       0.057033
     27 H063         8.0820    -7.8280    24.3050 hc         1 G2U       0.057033
     28 H062         9.7770    -7.3800    24.5010 hc         1 G2U       0.057033
     29 H102         7.4020    -7.2630    30.3960 hc         1 G2U       0.040700
     30 H103         7.2110    -5.5520    30.0480 hc         1 G2U       0.040700
     31 H101         6.0330    -6.6980    29.4540 hc         1 G2U       0.040700
     32 H121         9.2710    -5.0830    30.8140 h4         1 G2U       0.167000
     33 H151        11.9410    -1.9860    27.0710 h1         1 G2U       0.093700
     34 H152        10.7400    -0.9080    27.7710 h1         1 G2U       0.093700
     35 H192        14.5390    -1.3200    31.1060 h1         1 G2U       0.084200
     36 H191        15.2960    -0.4940    29.7350 h1         1 G2U       0.084200
     37 H071        10.0880    -5.7890    26.2420 hn         1 G2U       0.363000
     38 H201        13.5450     1.0710    30.8820 hn         1 G2U       0.357500
     39 O18         14.0090    -2.7980    28.7700 o          1 G2U      -0.485000
@<TRIPOS>BOND
     1     1     2 1   
     2     1    23 1   
     3     1    24 1   
     4     1    25 1   
     5     2     3 1   
     6     2    20 2   
     7     3     4 2   
     8     3     7 1   
     9     4     5 1   
    10     4    16 1   
    11     5    26 1   
    12     5    27 1   
    13     5    28 1   
    14     6     7 2   
    15     6     9 1   
    16     6    16 1   
    17     7     8 1   
    18     8    29 1   
    19     8    30 1   
    20     8    31 1   
    21     9    10 2   
    22     9    19 1   
    23    10    22 1   
    24    10    32 1   
    25    11    12 1   
    26    11    19 2   
    27    11    22 1   
    28    12    17 1   
    29    12    33 1   
    30    12    34 1   
    31    13    14 1   
    32    13    17 1   
    33    13    39 2   
    34    14    18 1   
    35    14    35 1   
    36    14    36 1   
    37    15    17 1   
    38    15    18 1   
    39    15    21 2   
    40    16    37 1   
    41    18    38 1   
@<TRIPOS>SUBSTRUCTURE
     1 G2U         1 TEMP              0 ****  ****    0 ROOT
