@<TRIPOS>MOLECULE
G2U
   39    41     1     0     0
SMALL
No Charge or Current Charge


@<TRIPOS>ATOM
      1 C01          6.3940    -9.3670    28.6560 c3         1 G2U      -0.190100
      2 C02          7.1400    -8.9160    27.3980 c          1 G2U       0.614700
      3 C04          7.8690    -7.5950    27.3440 cc         1 G2U      -0.263600
      4 C05          8.7350    -7.2710    26.3130 cd         1 G2U      -0.068300
      5 C06          9.1460    -8.0390    25.0780 c3         1 G2U      -0.033800
      6 C08          8.7660    -5.5770    27.8260 cd         1 G2U      -0.225500
      7 C09          7.8390    -6.4960    28.2780 cc         1 G2U      -0.067300
      8 C10          6.8930    -6.3600    29.4520 c3         1 G2U      -0.025800
      9 C11          9.2230    -4.3380    28.4160 cd         1 G2U       0.374500
     10 C12          8.9040    -3.9420    29.6960 cc         1 G2U      -0.258000
     11 C14         10.3830    -2.4510    28.4930 cc         1 G2U       0.419700
     12 C15         11.2990    -1.3360    28.0490 c3         1 G2U       0.080700
     13 C17         13.5880    -1.9520    28.8950 c          1 G2U       0.555000
     14 C19         14.5100    -1.3950    30.0160 c5         1 G2U       0.010000
     15 C21         12.5020    -0.1710    29.9170 c          1 G2U       0.620000
     16 N07          9.2690    -6.0220    26.6090 na         1 G2U      -0.078000
     17 N16         12.4640    -1.1460    28.9530 n          1 G2U      -0.405400
     18 N20         13.6920    -0.2860    30.5650 ns         1 G2U      -0.520900
     19 N23         10.0870    -3.4970    27.7330 nd         1 G2U      -0.657000
     20 O03          7.1580    -9.6960    26.4530 o          1 G2U      -0.561100
     21 O22         11.6360     0.6480    30.1620 o          1 G2U      -0.535000
     22 S13          9.6470    -2.4150    30.0760 ss         1 G2U      -0.005400
     23 H012         6.2330   -10.4520    28.6640 hc         1 G2U       0.056367
     24 H013         6.9160    -9.0330    29.5570 hc         1 G2U       0.056367
     25 H011         5.4190    -8.8710    28.6820 hc         1 G2U       0.056367
     26 H061         9.5860    -9.0070    25.3430 hc         1 G2U       0.057033
     27 H063         8.2860    -8.2240    24.4240 hc         1 G2U       0.057033
     28 H062         9.8920    -7.4900    24.4910 hc         1 G2U       0.057033
     29 H102         7.3340    -6.7530    30.3750 hc         1 G2U       0.040700
     30 H103         6.6110    -5.3150    29.6110 hc         1 G2U       0.040700
     31 H101         5.9370    -6.8560    29.2720 hc         1 G2U       0.040700
     32 H121         8.3300    -4.4380    30.4610 h4         1 G2U       0.167000
     33 H151        11.6600    -1.5560    27.0370 h1         1 G2U       0.093700
     34 H152        10.7160    -0.4090    27.9900 h1         1 G2U       0.093700
     35 H192        14.7050    -2.1880    30.7490 h1         1 G2U       0.084200
     36 H191        15.4520    -1.0540    29.5690 h1         1 G2U       0.084200
     37 H071         9.9520    -5.5220    26.0480 hn         1 G2U       0.363000
     38 H201        13.9230     0.3480    31.3240 hn         1 G2U       0.357500
     39 O18         13.7660    -2.8820    28.1220 o          1 G2U      -0.485000
@<TRIPOS>BOND
     1     1     2 1   
     2     1    23 1   
     3     1    24 1   
     4     1    25 1   
     5     2     3 1   
     6     2    20 2   
     7     3     4 2   
     8     3     7 1   
     9     4     5 1   
    10     4    16 1   
    11     5    26 1   
    12     5    27 1   
    13     5    28 1   
    14     6     7 2   
    15     6     9 1   
    16     6    16 1   
    17     7     8 1   
    18     8    29 1   
    19     8    30 1   
    20     8    31 1   
    21     9    10 2   
    22     9    19 1   
    23    10    22 1   
    24    10    32 1   
    25    11    12 1   
    26    11    19 2   
    27    11    22 1   
    28    12    17 1   
    29    12    33 1   
    30    12    34 1   
    31    13    14 1   
    32    13    17 1   
    33    13    39 2   
    34    14    18 1   
    35    14    35 1   
    36    14    36 1   
    37    15    17 1   
    38    15    18 1   
    39    15    21 2   
    40    16    37 1   
    41    18    38 1   
@<TRIPOS>SUBSTRUCTURE
     1 G2U         1 TEMP              0 ****  ****    0 ROOT
