@<TRIPOS>MOLECULE
G2V
   35    38     1     0     0
SMALL
abcg2


@<TRIPOS>ATOM
      1 C01         -3.3080    -1.9980    -0.1800 c5         1 G2V      -0.029100
      2 C02         -4.5840    -1.2600     0.2440 c5         1 G2V       0.190800
      3 N03         -4.3130     0.1370    -0.0860 nh         1 G2V      -0.778400
      4 C04         -2.2760    -0.9060    -0.0890 ca         1 G2V      -0.154300
      5 C05         -2.9460     0.3220    -0.0380 ca         1 G2V       0.280000
      6 C06         -2.2230     1.5060     0.0410 ca         1 G2V      -0.162000
      7 C07         -0.8340     1.4360     0.0450 ca         1 G2V      -0.075000
      8 C08         -0.1500     0.2220    -0.0170 ca         1 G2V      -0.142500
      9 C09          1.3120     0.1670    -0.0040 cc         1 G2V       0.305500
     10 C10          2.2090     1.2110     0.0690 cd         1 G2V      -0.205000
     11 N11          3.4350     0.6180     0.0690 na         1 G2V      -0.173500
     12 C12          4.8230     1.0300     0.0500 c5         1 G2V       0.073600
     13 C13          5.5430    -0.3010     0.3370 c5         1 G2V      -0.099400
     14 C14          4.5630    -1.4160    -0.0880 c5         1 G2V      -0.102700
     15 C15          3.2530    -0.7090    -0.0170 cd         1 G2V       0.388800
     16 N16          1.9880    -1.0310    -0.0610 nc         1 G2V      -0.661000
     17 C17         -0.9020    -0.9630    -0.0850 ca         1 G2V      -0.033000
     18 C18         -5.2100     1.1320     0.4380 c3         1 G2V       0.192100
     19 H1          -3.0960    -2.8560     0.4570 hc         1 G2V       0.056700
     20 H2          -3.3890    -2.3660    -1.2070 hc         1 G2V       0.056700
     21 H3          -5.4780    -1.6150    -0.2690 h1         1 G2V       0.040200
     22 H4          -4.7500    -1.3730     1.3250 h1         1 G2V       0.040200
     23 H5          -2.7140     2.4680     0.1040 ha         1 G2V       0.113000
     24 H6          -0.2770     2.3630     0.1110 ha         1 G2V       0.102000
     25 H7           2.0790     2.2790     0.1310 h4         1 G2V       0.158000
     26 H8           5.0800     1.4400    -0.9280 h1         1 G2V       0.060200
     27 H9           6.4970    -0.3610    -0.1850 hc         1 G2V       0.059200
     28 H10          4.7600    -1.7590    -1.1080 hc         1 G2V       0.070700
     29 H12         -0.3920    -1.9170    -0.1260 ha         1 G2V       0.134000
     30 H13         -5.1590     1.2170     1.5310 h1         1 G2V       0.034367
     31 H14         -4.9890     2.1100     0.0110 h1         1 G2V       0.034367
     32 H15         -6.2340     0.8810     0.1650 h1         1 G2V       0.034367
     33 H16          5.0210     1.7910     0.8030 h1         1 G2V       0.060200
     34 H17          5.7450    -0.3810     1.4050 hc         1 G2V       0.059200
     35 H18          4.6140    -2.2870     0.5650 hc         1 G2V       0.070700
@<TRIPOS>BOND
     1     1     2 1   
     2     1     4 1   
     3     1    19 1   
     4     1    20 1   
     5     2     3 1   
     6     2    21 1   
     7     2    22 1   
     8     3     5 1   
     9     3    18 1   
    10     4     5 ar  
    11     4    17 ar  
    12     5     6 ar  
    13     6     7 ar  
    14     6    23 1   
    15     7     8 ar  
    16     7    24 1   
    17     8     9 1   
    18     8    17 ar  
    19     9    10 2   
    20     9    16 1   
    21    10    11 1   
    22    10    25 1   
    23    11    12 1   
    24    11    15 1   
    25    12    13 1   
    26    12    26 1   
    27    12    33 1   
    28    13    14 1   
    29    13    27 1   
    30    13    34 1   
    31    14    15 1   
    32    14    28 1   
    33    14    35 1   
    34    15    16 2   
    35    17    29 1   
    36    18    30 1   
    37    18    31 1   
    38    18    32 1   
@<TRIPOS>SUBSTRUCTURE
     1 G2V         1 TEMP              0 ****  ****    0 ROOT
