@<TRIPOS>MOLECULE
G2V
   35    38     1     0     0
SMALL
No Charge or Current Charge


@<TRIPOS>ATOM
      1 C01         -3.3150    -2.0330    -0.1530 c5         1 G2V      -0.029100
      2 C02         -4.7070    -1.2790    -0.0170 c5         1 G2V       0.190800
      3 N03         -4.2910     0.1390     0.1900 nh         1 G2V      -0.778400
      4 C04         -2.3070    -0.9040     0.0010 ca         1 G2V      -0.154300
      5 C05         -2.9160     0.3130     0.1940 ca         1 G2V       0.280000
      6 C06         -2.1760     1.4880     0.3650 ca         1 G2V      -0.162000
      7 C07         -0.7700     1.4090     0.3320 ca         1 G2V      -0.075000
      8 C08         -0.1180     0.1640     0.1210 ca         1 G2V      -0.142500
      9 C09          1.3500     0.0600     0.1030 cc         1 G2V       0.305500
     10 C10          2.1680     1.1690     0.0370 cd         1 G2V      -0.205000
     11 N11          3.4260     0.6040     0.0290 na         1 G2V      -0.173500
     12 C12          4.7750     1.0840    -0.0480 c5         1 G2V       0.073600
     13 C13          5.6550    -0.2340     0.0830 c5         1 G2V      -0.099400
     14 C14          4.6100    -1.4490     0.0460 c5         1 G2V      -0.102700
     15 C15          3.3060    -0.7260     0.0820 cd         1 G2V       0.388800
     16 N16          2.0480    -1.1250     0.1220 nc         1 G2V      -0.661000
     17 C17         -0.9070    -1.0040    -0.0350 ca         1 G2V      -0.033000
     18 C18         -5.2490     1.2460     0.3770 c3         1 G2V       0.192100
     19 H1          -3.1980    -2.7970     0.6240 hc         1 G2V       0.056700
     20 H2          -3.2260    -2.5350    -1.1220 hc         1 G2V       0.056700
     21 H3          -5.3120    -1.3940    -0.9270 h1         1 G2V       0.040200
     22 H4          -5.2840    -1.6600     0.8370 h1         1 G2V       0.040200
     23 H5          -2.6730     2.4410     0.5240 ha         1 G2V       0.113000
     24 H6          -0.1980     2.3210     0.4770 ha         1 G2V       0.102000
     25 H7           1.9710     2.2320    -0.0110 h4         1 G2V       0.158000
     26 H8           4.9420     1.5870    -1.0090 h1         1 G2V       0.060200
     27 H9           6.3970    -0.3060    -0.7200 hc         1 G2V       0.059200
     28 H10          4.7140    -2.0460    -0.8660 hc         1 G2V       0.070700
     29 H12         -0.4420    -1.9750    -0.1870 ha         1 G2V       0.134000
     30 H13         -5.0970     1.7240     1.3540 h1         1 G2V       0.034367
     31 H14         -5.1230     2.0000    -0.4110 h1         1 G2V       0.034367
     32 H15         -6.2810     0.8740     0.3340 h1         1 G2V       0.034367
     33 H16          4.9830     1.7990     0.7590 h1         1 G2V       0.060200
     34 H17          6.2110    -0.2300     1.0280 hc         1 G2V       0.059200
     35 H18          4.7340    -2.1240     0.9000 hc         1 G2V       0.070700
@<TRIPOS>BOND
     1     1     2 1   
     2     1     4 1   
     3     1    19 1   
     4     1    20 1   
     5     2     3 1   
     6     2    21 1   
     7     2    22 1   
     8     3     5 1   
     9     3    18 1   
    10     4     5 ar  
    11     4    17 ar  
    12     5     6 ar  
    13     6     7 ar  
    14     6    23 1   
    15     7     8 ar  
    16     7    24 1   
    17     8     9 1   
    18     8    17 ar  
    19     9    10 2   
    20     9    16 1   
    21    10    11 1   
    22    10    25 1   
    23    11    12 1   
    24    11    15 1   
    25    12    13 1   
    26    12    26 1   
    27    12    33 1   
    28    13    14 1   
    29    13    27 1   
    30    13    34 1   
    31    14    15 1   
    32    14    28 1   
    33    14    35 1   
    34    15    16 2   
    35    17    29 1   
    36    18    30 1   
    37    18    31 1   
    38    18    32 1   
@<TRIPOS>SUBSTRUCTURE
     1 G2V         1 TEMP              0 ****  ****    0 ROOT
