@<TRIPOS>MOLECULE
G2W
   52    55     1     0     0
SMALL
bcc


@<TRIPOS>ATOM
      1 C10        133.1530   130.7330   133.1250 cy         1 G2W       0.211300
      2 C13        131.0340   132.7220   132.0790 ca         1 G2W       0.074100
      3 C15        129.9970   133.3550   132.7720 ca         1 G2W      -0.061300
      4 C17        136.4780   128.3530   132.3730 ca         1 G2W       0.943900
      5 C20        128.8660   132.5760   133.3750 c3         1 G2W      -0.046800
      6 C21        132.0870   134.8430   131.6120 ca         1 G2W      -0.155000
      7 C22        131.0630   135.4570   132.3030 ca         1 G2W       0.134900
      8 C24        137.2660   131.3280   132.5810 ca         1 G2W      -0.106000
      9 C26        137.7550   132.6150   132.7860 ca         1 G2W      -0.125600
     10 C28        139.0960   132.8200   133.0940 ca         1 G2W      -0.142000
     11 F01        131.0650   136.7960   132.4190 f          1 G2W      -0.144900
     12 O02        131.0300   131.3600   131.9310 os         1 G2W      -0.327900
     13 O03        135.5830   133.5770   132.9350 o          1 G2W      -0.610100
     14 N04        133.1870   129.2960   132.9370 nn         1 G2W      -0.786300
     15 N05        135.4280   129.0960   132.6790 nb         1 G2W      -0.835000
     16 N06        136.4620   127.0670   132.0170 nb         1 G2W      -0.807000
     17 N07        137.7230   128.9130   132.4230 nu         1 G2W      -0.743300
     18 N08        137.2640   134.9250   132.2950 ns         1 G2W      -0.571900
     19 C09        131.6140   130.6530   132.9990 cy         1 G2W       0.107100
     20 C11        131.7620   129.1530   132.6910 cy         1 G2W       0.211300
     21 C12        134.2260   128.5230   132.6110 ca         1 G2W       0.760200
     22 C14        134.0820   127.1760   132.2290 ca         1 G2W      -0.480600
     23 C16        132.0600   133.4600   131.5040 ca         1 G2W      -0.098000
     24 C18        135.2540   126.5110   131.9550 ca         1 G2W       0.499200
     25 C19        130.0270   134.7430   132.8730 ca         1 G2W      -0.166000
     26 C23        138.1160   130.2250   132.6610 ca         1 G2W       0.183600
     27 C25        139.4660   130.4430   132.9630 ca         1 G2W      -0.172000
     28 C27        139.9430   131.7230   133.1780 ca         1 G2W      -0.106000
     29 C30        136.4290   136.0930   132.1500 c3         1 G2W       0.095300
     30 H1         133.6540   131.2920   132.3320 h1         1 G2W       0.073200
     31 H2         133.5320   131.0730   134.0900 h1         1 G2W       0.073200
     32 H3         129.1800   132.0420   134.2740 hc         1 G2W       0.047033
     33 H4         128.0510   133.2370   133.6610 hc         1 G2W       0.047033
     34 H5         128.4720   131.8340   132.6820 hc         1 G2W       0.047033
     35 H6         132.8850   135.4220   131.1660 ha         1 G2W       0.153000
     36 H7         136.2220   131.1900   132.3530 ha         1 G2W       0.180000
     37 H8         139.4860   133.8090   133.2960 ha         1 G2W       0.131000
     38 H9         138.4680   128.2490   132.2750 hn         1 G2W       0.456800
     39 H10        138.2180   134.9860   131.9820 hn         1 G2W       0.318500
     40 H11        131.0970   130.8590   133.9400 h1         1 G2W       0.064700
     41 H12        131.2470   128.4750   133.3730 h1         1 G2W       0.073200
     42 H13        131.5140   128.8860   131.6610 h1         1 G2W       0.073200
     43 H14        133.1210   126.6880   132.1620 ha         1 G2W       0.151000
     44 H15        132.8390   132.9530   130.9490 ha         1 G2W       0.151000
     45 H16        135.2250   125.4660   131.6650 h4         1 G2W       0.017100
     46 H17        129.2350   135.2660   133.3940 ha         1 G2W       0.149000
     47 H18        140.1430   129.5990   133.0340 ha         1 G2W       0.133000
     48 H19        140.9870   131.8650   133.4240 ha         1 G2W       0.133000
     49 H20        137.0530   136.9250   131.8390 h1         1 G2W       0.039033
     50 H21        135.6500   135.9460   131.3990 h1         1 G2W       0.039033
     51 H22        135.9470   136.3580   133.0910 h1         1 G2W       0.039033
     52 C29        136.7710   133.7400   132.6840 c          1 G2W       0.677700
@<TRIPOS>BOND
     1     1    14 1   
     2     1    19 1   
     3     1    30 1   
     4     1    31 1   
     5     2     3 ar  
     6     2    12 1   
     7     2    23 ar  
     8     3     5 1   
     9     3    25 ar  
    10     4    15 ar  
    11     4    16 ar  
    12     4    17 1   
    13     5    32 1   
    14     5    33 1   
    15     5    34 1   
    16     6     7 ar  
    17     6    23 ar  
    18     6    35 1   
    19     7    11 1   
    20     7    25 ar  
    21     8     9 ar  
    22     8    26 ar  
    23     8    36 1   
    24     9    10 ar  
    25     9    52 1   
    26    10    28 ar  
    27    10    37 1   
    28    12    19 1   
    29    13    52 2   
    30    14    20 1   
    31    14    21 1   
    32    15    21 ar  
    33    16    24 ar  
    34    17    26 1   
    35    17    38 1   
    36    18    29 1   
    37    18    39 1   
    38    18    52 1   
    39    19    20 1   
    40    19    40 1   
    41    20    41 1   
    42    20    42 1   
    43    21    22 ar  
    44    22    24 ar  
    45    22    43 1   
    46    23    44 1   
    47    24    45 1   
    48    25    46 1   
    49    26    27 ar  
    50    27    28 ar  
    51    27    47 1   
    52    28    48 1   
    53    29    49 1   
    54    29    50 1   
    55    29    51 1   
@<TRIPOS>SUBSTRUCTURE
     1 G2W         1 TEMP              0 ****  ****    0 ROOT
