@<TRIPOS>MOLECULE
G2W
   52    55     1     0     0
SMALL
No Charge or Current Charge


@<TRIPOS>ATOM
      1 C10        133.0280   130.8440   132.6060 cy         1 G2W       0.211300
      2 C13        130.5310   132.7980   132.1960 ca         1 G2W       0.074100
      3 C15        129.5900   133.2600   133.1460 ca         1 G2W      -0.061300
      4 C17        136.5140   128.3070   132.5550 ca         1 G2W       0.417900
      5 C20        128.6610   132.2950   133.8750 c3         1 G2W      -0.046800
      6 C21        131.2820   135.0820   131.8010 ca         1 G2W      -0.137000
      7 C22        130.3580   135.5420   132.7500 ca         1 G2W       0.170000
      8 C24        137.5940   131.2890   132.3200 ca         1 G2W      -0.088000
      9 C26        138.1180   132.5950   132.4650 ca         1 G2W      -0.125600
     10 C28        139.3630   132.7510   133.1230 ca         1 G2W      -0.124000
     11 F01        130.2760   136.8630   133.0200 f          1 G2W      -0.180000
     12 O02        130.6390   131.4590   131.9110 os         1 G2W      -0.351100
     13 O03        136.2550   133.6350   131.3550 o          1 G2W      -0.610100
     14 N04        133.1420   129.3570   132.6580 nn         1 G2W      -0.786300
     15 N05        135.4510   129.1130   132.6800 nb         1 G2W      -0.309000
     16 N06        136.4970   126.9820   132.3420 nb         1 G2W      -0.281000
     17 N07        137.7800   128.8570   132.6950 nu         1 G2W      -0.936900
     18 N08        137.8960   135.0200   132.0760 ns         1 G2W      -0.504900
     19 C09        131.4800   130.6270   132.7290 cy         1 G2W       0.130300
     20 C11        131.7290   129.1660   132.2180 cy         1 G2W       0.211300
     21 C12        134.2430   128.5440   132.5530 ca         1 G2W       0.431900
     22 C14        134.1090   127.1710   132.3190 ca         1 G2W      -0.332000
     23 C16        131.3670   133.7070   131.5210 ca         1 G2W      -0.080000
     24 C18        135.2830   126.4120   132.2210 ca         1 G2W       0.170900
     25 C19        129.5150   134.6410   133.4200 ca         1 G2W      -0.148000
     26 C23        138.2740   130.1620   132.8250 ca         1 G2W       0.322000
     27 C25        139.5140   130.3430   133.4570 ca         1 G2W      -0.154000
     28 C27        140.0550   131.6300   133.6100 ca         1 G2W      -0.088000
     29 C30        137.2840   136.2680   131.6140 c3         1 G2W       0.095300
     30 H1         133.3370   131.2940   131.6550 h1         1 G2W       0.073200
     31 H2         133.4620   131.3950   133.4480 h1         1 G2W       0.073200
     32 H3         129.1800   131.8030   134.7050 hc         1 G2W       0.047033
     33 H4         127.7880   132.8130   134.2910 hc         1 G2W       0.047033
     34 H5         128.2850   131.5150   133.2020 hc         1 G2W       0.047033
     35 H6         131.9280   135.7870   131.2840 ha         1 G2W       0.135000
     36 H7         136.6560   131.1530   131.7930 ha         1 G2W       0.162000
     37 H8         139.8110   133.7310   133.2620 ha         1 G2W       0.113000
     38 H9         138.4940   128.1390   132.8050 hn         1 G2W       0.512000
     39 H10        138.7900   135.0650   132.5480 hn         1 G2W       0.318500
     40 H11        131.1370   130.6500   133.7690 h1         1 G2W       0.064700
     41 H12        131.1490   128.4080   132.7580 h1         1 G2W       0.073200
     42 H13        131.5950   129.0500   131.1350 h1         1 G2W       0.073200
     43 H14        133.1350   126.7050   132.2200 ha         1 G2W       0.133000
     44 H15        132.0790   133.3450   130.7840 ha         1 G2W       0.133000
     45 H16        135.2550   125.3380   132.0440 h4         1 G2W       0.017100
     46 H17        128.8040   135.0190   134.1500 ha         1 G2W       0.131000
     47 H18        140.0590   129.4860   133.8430 ha         1 G2W       0.115000
     48 H19        141.0130   131.7590   134.1090 ha         1 G2W       0.115000
     49 H20        137.9350   137.1130   131.8720 h1         1 G2W       0.039033
     50 H21        137.1500   136.2330   130.5250 h1         1 G2W       0.039033
     51 H22        136.3080   136.4030   132.0980 h1         1 G2W       0.039033
     52 C29        137.3350   133.7730   131.9150 c          1 G2W       0.610700
@<TRIPOS>BOND
     1     1    14 1   
     2     1    19 1   
     3     1    30 1   
     4     1    31 1   
     5     2     3 ar  
     6     2    12 1   
     7     2    23 ar  
     8     3     5 1   
     9     3    25 ar  
    10     4    15 ar  
    11     4    16 ar  
    12     4    17 1   
    13     5    32 1   
    14     5    33 1   
    15     5    34 1   
    16     6     7 ar  
    17     6    23 ar  
    18     6    35 1   
    19     7    11 1   
    20     7    25 ar  
    21     8     9 ar  
    22     8    26 ar  
    23     8    36 1   
    24     9    10 ar  
    25     9    52 1   
    26    10    28 ar  
    27    10    37 1   
    28    12    19 1   
    29    13    52 2   
    30    14    20 1   
    31    14    21 1   
    32    15    21 ar  
    33    16    24 ar  
    34    17    26 1   
    35    17    38 1   
    36    18    29 1   
    37    18    39 1   
    38    18    52 1   
    39    19    20 1   
    40    19    40 1   
    41    20    41 1   
    42    20    42 1   
    43    21    22 ar  
    44    22    24 ar  
    45    22    43 1   
    46    23    44 1   
    47    24    45 1   
    48    25    46 1   
    49    26    27 ar  
    50    27    28 ar  
    51    27    47 1   
    52    28    48 1   
    53    29    49 1   
    54    29    50 1   
    55    29    51 1   
@<TRIPOS>SUBSTRUCTURE
     1 G2W         1 TEMP              0 ****  ****    0 ROOT
