@<TRIPOS>MOLECULE
G2X
   49    51     1     0     0
SMALL
No Charge or Current Charge


@<TRIPOS>ATOM
      1 N12          7.0290    47.0010    12.9150 nc         1 G2X      -0.625100
      2 C15          3.6660    46.5430    17.3230 ca         1 G2X       0.259500
      3 C17          3.1560    46.1380    18.5640 ca         1 G2X      -0.252000
      4 C20          2.1650    45.3660    21.1820 c3         1 G2X       0.164600
      5 C21          1.8920    45.2530    22.6930 c3         1 G2X      -0.087400
      6 C22          0.8680    44.1520    23.0260 c3         1 G2X       0.159800
      7 C24         -0.3590    43.0940    24.9160 c3         1 G2X       0.143100
      8 C26          5.0360    48.2070    18.4230 ca         1 G2X       0.259500
      9 C28          5.3020    43.9540    14.0670 c3         1 G2X       0.273000
     10 C01          6.5330    44.6140    14.7820 c3         1 G2X       0.174500
     11 C02          7.2470    43.6410    15.7470 c3         1 G2X      -0.108100
     12 C04          5.8510    47.1100    15.1010 cc         1 G2X       0.444000
     13 C05          5.1640    48.0160    15.9130 cd         1 G2X      -0.239000
     14 C06          4.8580    49.3410    15.4050 cd         1 G2X       0.549000
     15 C09          5.9560    48.9180    13.5140 cc         1 G2X       0.462500
     16 C11          7.1200    47.9650    11.9980 cd         1 G2X       0.563200
     17 C14          4.6210    47.5790    17.2300 ca         1 G2X      -0.182000
     18 C18          3.5920    46.7690    19.7430 ca         1 G2X       0.222100
     19 C25          4.5300    47.8020    19.6640 ca         1 G2X      -0.252000
     20 F27          5.9690    49.1850    18.3870 f          1 G2X      -0.157500
     21 F30          4.6570    44.8360    13.2670 f          1 G2X      -0.109667
     22 F31          4.4040    43.4800    14.9620 f          1 G2X      -0.109667
     23 N03          6.1810    45.8350    15.5610 nu         1 G2X      -0.947200
     24 N08          5.2400    49.8170    14.2330 nc         1 G2X      -0.664000
     25 N10          6.4750    49.1480    12.3320 nd         1 G2X      -0.380300
     26 N13          6.2700    47.6380    13.8550 na         1 G2X       0.039900
     27 N23          0.6320    44.0970    24.4800 n7         1 G2X      -0.855400
     28 O19          3.1290    46.4150    20.9920 os         1 G2X      -0.337100
     29 Cl7          3.8590    50.4040    16.3520 cl         1 G2X      -0.130000
     30 H171         2.4190    45.3420    18.5840 ha         1 G2X       0.150000
     31 H201         1.2290    45.5980    20.6570 h1         1 G2X       0.041700
     32 H202         2.5530    44.4090    20.8070 h1         1 G2X       0.041700
     33 H211         2.8350    45.0440    23.2120 hc         1 G2X       0.064700
     34 H212         1.5210    46.2170    23.0620 hc         1 G2X       0.064700
     35 H222        -0.0710    44.3660    22.4960 h1         1 G2X       0.030200
     36 H221         1.2470    43.1870    22.6620 h1         1 G2X       0.030200
     37 H241        -0.4850    43.1230    26.0070 h1         1 G2X       0.031700
     38 H243        -1.3390    43.2860    24.4560 h1         1 G2X       0.031700
     39 H242        -0.0420    42.0800    24.6370 h1         1 G2X       0.031700
     40 H011         7.2680    44.8450    13.9990 h1         1 G2X       0.133700
     41 H022         8.1350    44.1150    16.1830 hc         1 G2X       0.063033
     42 H023         6.5850    43.3330    16.5640 hc         1 G2X       0.063033
     43 H021         7.5770    42.7400    15.2160 hc         1 G2X       0.063033
     44 H111         7.6530    47.8590    11.0600 h5         1 G2X       0.075800
     45 H251         4.8720    48.2910    20.5710 ha         1 G2X       0.150000
     46 H031         5.8930    45.6870    16.5270 hn         1 G2X       0.513000
     47 H1           1.5260    43.8840    24.9420 hn         1 G2X       0.407000
     48 F16          3.1900    45.9570    16.2040 f          1 G2X      -0.157500
     49 F29          5.6950    42.9170    13.2920 f          1 G2X      -0.109667
@<TRIPOS>BOND
     1     1    16 2   
     2     1    26 1   
     3     2     3 ar  
     4     2    17 ar  
     5     2    48 1   
     6     3    18 ar  
     7     3    30 1   
     8     4     5 1   
     9     4    28 1   
    10     4    31 1   
    11     4    32 1   
    12     5     6 1   
    13     5    33 1   
    14     5    34 1   
    15     6    27 1   
    16     6    35 1   
    17     6    36 1   
    18     7    27 1   
    19     7    37 1   
    20     7    38 1   
    21     7    39 1   
    22     8    17 ar  
    23     8    19 ar  
    24     8    20 1   
    25     9    10 1   
    26     9    21 1   
    27     9    22 1   
    28     9    49 1   
    29    10    11 1   
    30    10    23 1   
    31    10    40 1   
    32    11    41 1   
    33    11    42 1   
    34    11    43 1   
    35    12    13 2   
    36    12    23 1   
    37    12    26 1   
    38    13    14 1   
    39    13    17 1   
    40    14    24 2   
    41    14    29 1   
    42    15    24 1   
    43    15    25 2   
    44    15    26 1   
    45    16    25 1   
    46    16    44 1   
    47    18    19 ar  
    48    18    28 1   
    49    19    45 1   
    50    23    46 1   
    51    27    47 1   
@<TRIPOS>SUBSTRUCTURE
     1 G2X         1 TEMP              0 ****  ****    0 ROOT
