@<TRIPOS>MOLECULE
G2X
   49    51     1     0     0
SMALL
bcc


@<TRIPOS>ATOM
      1 N12          6.8950    47.0540    12.9480 nc         1 G2X      -0.625100
      2 C15          3.3920    46.6460    17.4060 ca         1 G2X       0.224400
      3 C17          2.9270    46.2080    18.6300 ca         1 G2X      -0.270000
      4 C20          2.1340    45.4220    21.2260 c3         1 G2X       0.141400
      5 C21          2.0110    45.1780    22.7150 c3         1 G2X      -0.087400
      6 C22          0.7790    44.3450    23.0390 c3         1 G2X       0.159800
      7 C24         -0.4780    43.3060    24.8130 c3         1 G2X       0.143100
      8 C26          5.2260    47.7150    18.4110 ca         1 G2X       0.224400
      9 C28          5.5970    43.9820    14.1770 c3         1 G2X       0.636900
     10 C01          6.7640    44.7650    14.7680 c3         1 G2X       0.174500
     11 C02          7.6320    43.9040    15.6720 c3         1 G2X      -0.108100
     12 C04          5.7890    47.0720    15.1110 cc         1 G2X       0.356300
     13 C05          4.9790    47.8790    15.9170 cd         1 G2X      -0.304300
     14 C06          4.5900    49.1210    15.4060 cd         1 G2X       0.614300
     15 C09          5.6700    48.8370    13.4860 cc         1 G2X       0.462500
     16 C11          6.8730    47.9770    12.0150 cd         1 G2X       0.563200
     17 C14          4.5430    47.4010    17.2390 ca         1 G2X      -0.182000
     18 C18          3.6540    46.5480    19.7710 ca         1 G2X       0.222100
     19 C25          4.8200    47.3120    19.6580 ca         1 G2X      -0.270000
     20 F27          6.3350    48.4510    18.3020 f          1 G2X      -0.122400
     21 F30          4.8150    44.7590    13.4160 f          1 G2X      -0.230967
     22 F31          4.8140    43.4550    15.1260 f          1 G2X      -0.230967
     23 N03          6.2420    45.8860    15.5280 nu         1 G2X      -0.753600
     24 N08          4.9010    49.6120    14.2410 nc         1 G2X      -0.664000
     25 N10          6.1500    49.0750    12.2820 nd         1 G2X      -0.380300
     26 N13          6.1140    47.5970    13.9020 na         1 G2X      -0.010800
     27 N23          0.6750    44.1100    24.4650 n7         1 G2X      -0.800200
     28 O19          3.3110    46.1920    21.0080 os         1 G2X      -0.313900
     29 CL7          3.5860    50.1120    16.3980 cl         1 G2X      -0.130000
     30 H171         2.0170    45.6240    18.6710 ha         1 G2X       0.168000
     31 H201         1.2570    45.9610    20.8520 h1         1 G2X       0.041700
     32 H202         2.2010    44.4720    20.6840 h1         1 G2X       0.041700
     33 H211         2.9060    44.6590    23.0720 hc         1 G2X       0.064700
     34 H212         1.9520    46.1310    23.2440 hc         1 G2X       0.064700
     35 H222        -0.1190    44.8810    22.7140 h1         1 G2X       0.030200
     36 H221         0.8030    43.4090    22.4560 h1         1 G2X       0.030200
     37 H241        -0.4790    43.1050    25.8840 h1         1 G2X       0.031700
     38 H243        -1.3950    43.8500    24.5810 h1         1 G2X       0.031700
     39 H242        -0.5290    42.3410    24.2890 h1         1 G2X       0.031700
     40 H011         7.3600    45.1330    13.9360 h1         1 G2X       0.133700
     41 H022         8.4750    44.4960    16.0240 hc         1 G2X       0.063033
     42 H023         7.0830    43.5390    16.5410 hc         1 G2X       0.063033
     43 H021         8.0290    43.0490    15.1300 hc         1 G2X       0.063033
     44 H111         7.4160    47.8400    11.0920 h5         1 G2X       0.075800
     45 H251         5.3870    47.5840    20.5400 ha         1 G2X       0.168000
     46 H031         5.9660    45.6590    16.4750 hn         1 G2X       0.457800
     47 H1           1.5120    43.6340    24.7790 hn         1 G2X       0.351800
     48 F16          2.6930    46.3300    16.3140 f          1 G2X      -0.122400
     49 F29          6.0270    42.9780    13.4080 f          1 G2X      -0.230967
@<TRIPOS>BOND
     1     1    16 2   
     2     1    26 1   
     3     2     3 ar  
     4     2    17 ar  
     5     2    48 1   
     6     3    18 ar  
     7     3    30 1   
     8     4     5 1   
     9     4    28 1   
    10     4    31 1   
    11     4    32 1   
    12     5     6 1   
    13     5    33 1   
    14     5    34 1   
    15     6    27 1   
    16     6    35 1   
    17     6    36 1   
    18     7    27 1   
    19     7    37 1   
    20     7    38 1   
    21     7    39 1   
    22     8    17 ar  
    23     8    19 ar  
    24     8    20 1   
    25     9    10 1   
    26     9    21 1   
    27     9    22 1   
    28     9    49 1   
    29    10    11 1   
    30    10    23 1   
    31    10    40 1   
    32    11    41 1   
    33    11    42 1   
    34    11    43 1   
    35    12    13 2   
    36    12    23 1   
    37    12    26 1   
    38    13    14 1   
    39    13    17 1   
    40    14    24 2   
    41    14    29 1   
    42    15    24 1   
    43    15    25 2   
    44    15    26 1   
    45    16    25 1   
    46    16    44 1   
    47    18    19 ar  
    48    18    28 1   
    49    19    45 1   
    50    23    46 1   
    51    27    47 1   
@<TRIPOS>SUBSTRUCTURE
     1 G2X         1 TEMP              0 ****  ****    0 ROOT
