@<TRIPOS>MOLECULE
G2Z
   17    16     1     0     0
SMALL
No Charge or Current Charge


@<TRIPOS>ATOM
      1 N1          16.7680   -19.9770    25.9390 n8         1 G2Z      -0.977200
      2 C2          17.0260   -17.4740    25.6950 c3         1 G2Z       0.134000
      3 CA          17.1520   -18.7230    26.6220 c3         1 G2Z       0.145500
      4 C           18.1570   -16.5380    23.6510 c          1 G2Z       0.729000
      5 O           17.7440   -15.4220    23.9070 o          1 G2Z      -0.752000
      6 CB          18.5590   -18.8670    27.2430 c3         1 G2Z      -0.082100
      7 O1          18.8450   -16.8080    22.6880 o          1 G2Z      -0.752000
      8 H1          16.7030   -20.7270    26.6350 hn         1 G2Z       0.376500
      9 H2          15.8070   -19.8830    25.5910 hn         1 G2Z       0.376500
     10 H4          17.3290   -16.5810    26.2580 h1         1 G2Z       0.012700
     11 H5          15.9760   -17.3470    25.3980 h1         1 G2Z       0.012700
     12 H6          16.4400   -18.5900    27.4470 h1         1 G2Z      -0.013300
     13 H7          18.5910   -19.7120    27.9420 hc         1 G2Z       0.027367
     14 H8          19.3190   -19.0310    26.4700 hc         1 G2Z       0.027367
     15 H9          18.8260   -17.9610    27.7990 hc         1 G2Z       0.027367
     16 H10         18.1930   -18.4810    24.2200 hn         1 G2Z       0.261500
     17 N2          17.8390   -17.5720    24.4780 ns         1 G2Z      -0.555900
@<TRIPOS>BOND
     1     1     3 1   
     2     1     8 1   
     3     1     9 1   
     4     2     3 1   
     5     2    10 1   
     6     2    11 1   
     7     2    17 1   
     8     3     6 1   
     9     3    12 1   
    10     4     5 1   
    11     4     7 1   
    12     4    17 1   
    13     6    13 1   
    14     6    14 1   
    15     6    15 1   
    16    16    17 1   
@<TRIPOS>SUBSTRUCTURE
     1 G2Z         1 TEMP              0 ****  ****    0 ROOT
