@<TRIPOS>MOLECULE
G2Z
   17    16     1     0     0
SMALL
bcc


@<TRIPOS>ATOM
      1 N1          16.7130   -19.9010    25.9190 n8         1 G2Z      -0.866800
      2 C2          17.0890   -17.4840    25.7050 c3         1 G2Z       0.134000
      3 CA          17.1500   -18.7010    26.6250 c3         1 G2Z       0.145500
      4 C           18.0420   -16.5890    23.5950 c          1 G2Z       1.006600
      5 O           17.2630   -15.6160    23.6990 o          1 G2Z      -0.857300
      6 CB          18.5400   -18.9340    27.2030 c3         1 G2Z      -0.082100
      7 O1          18.9570   -16.7380    22.7540 o          1 G2Z      -0.857300
      8 H1          16.6360   -20.6650    26.5800 hn         1 G2Z       0.321300
      9 H2          15.7780   -19.7590    25.5580 hn         1 G2Z       0.321300
     10 H4          17.4120   -16.6150    26.2950 h1         1 G2Z       0.012700
     11 H5          16.0380   -17.2990    25.4550 h1         1 G2Z       0.012700
     12 H6          16.4900   -18.4520    27.4710 h1         1 G2Z      -0.013300
     13 H7          18.5300   -19.7710    27.9040 hc         1 G2Z       0.027367
     14 H8          19.2740   -19.1680    26.4300 hc         1 G2Z       0.027367
     15 H9          18.8860   -18.0550    27.7470 hc         1 G2Z       0.027367
     16 H10         18.6220   -18.2980    24.5460 hn         1 G2Z       0.261500
     17 N2          17.8540   -17.6490    24.4970 ns         1 G2Z      -0.622900
@<TRIPOS>BOND
     1     1     3 1   
     2     1     8 1   
     3     1     9 1   
     4     2     3 1   
     5     2    10 1   
     6     2    11 1   
     7     2    17 1   
     8     3     6 1   
     9     3    12 1   
    10     4     5 1   
    11     4     7 1   
    12     4    17 1   
    13     6    13 1   
    14     6    14 1   
    15     6    15 1   
    16    16    17 1   
@<TRIPOS>SUBSTRUCTURE
     1 G2Z         1 TEMP              0 ****  ****    0 ROOT
