@<TRIPOS>MOLECULE
G30
   25    26     1     0     0
SMALL
No Charge or Current Charge


@<TRIPOS>ATOM
      1 F11         -3.8930    -2.0950     0.6810 f          1 G30      -0.190000
      2 C11         -3.2560    -0.9370     0.4080 ca         1 G30       0.181000
      3 C12         -3.9390     0.2800     0.5500 ca         1 G30      -0.192000
      4 C13         -3.2760     1.4860     0.2680 ca         1 G30      -0.100000
      5 C14         -1.9350     1.4650    -0.1540 ca         1 G30       0.076000
      6 F14         -1.3140     2.6370    -0.4220 f          1 G30      -0.186000
      7 C10         -1.9170    -0.9620    -0.0140 ca         1 G30      -0.173000
      8 C9          -1.2390     0.2450    -0.3040 ca         1 G30       0.025000
      9 N5           0.1160     0.2990    -0.7340 ns         1 G30      -0.128000
     10 C4           1.0400    -0.6870    -1.0380 c          1 G30       0.692100
     11 O15          0.8150    -1.8920    -1.0020 o          1 G30      -0.589100
     12 C3           2.3880    -0.1300    -1.4720 cx         1 G30      -0.238700
     13 C1           3.4620     0.1500    -0.4230 cx         1 G30      -0.210700
     14 C2           3.6250    -1.0050    -1.3920 cx         1 G30      -0.095400
     15 C6           3.2040    -0.1580     1.0430 c          1 G30       0.726000
     16 O8           2.2770     0.4180     1.5890 o          1 G30      -0.719000
     17 O7           3.9670    -0.9200     1.6140 o          1 G30      -0.719000
     18 H12         -4.9750     0.2870     0.8770 ha         1 G30       0.121000
     19 H13         -3.7960     2.4350     0.3760 ha         1 G30       0.120000
     20 H10         -1.4300    -1.9270    -0.1040 ha         1 G30       0.171000
     21 HN5          0.4780     1.2380    -0.8270 hn         1 G30       0.172000
     22 H3           2.3400     0.5550    -2.3150 hc         1 G30       0.062700
     23 H1           4.0910     1.0190    -0.5930 hc         1 G30       0.060700
     24 H2           3.5210    -2.0150    -1.0020 hc         1 G30       0.067200
     25 H2A          4.3690    -0.9030    -2.1780 hc         1 G30       0.067200
@<TRIPOS>BOND
     1     1     2 1   
     2     2     3 ar  
     3     2     7 ar  
     4     3     4 ar  
     5     3    18 1   
     6     4     5 ar  
     7     4    19 1   
     8     5     6 1   
     9     5     8 ar  
    10     7     8 ar  
    11     7    20 1   
    12     8     9 1   
    13     9    10 1   
    14     9    21 1   
    15    10    11 2   
    16    10    12 1   
    17    12    13 1   
    18    12    14 1   
    19    12    22 1   
    20    13    14 1   
    21    13    15 1   
    22    13    23 1   
    23    14    24 1   
    24    14    25 1   
    25    15    16 1   
    26    15    17 1   
@<TRIPOS>SUBSTRUCTURE
     1 G30         1 TEMP              0 ****  ****    0 ROOT
