@<TRIPOS>MOLECULE
G30
   25    26     1     0     0
SMALL
bcc


@<TRIPOS>ATOM
      1 F11         -3.8650    -2.1600     0.3760 f          1 G30      -0.154900
      2 C11         -3.2000    -0.9980     0.2590 ca         1 G30       0.145900
      3 C12         -3.8580     0.1760     0.5550 ca         1 G30      -0.210000
      4 C13         -3.1460     1.3620     0.4270 ca         1 G30      -0.118000
      5 C14         -1.8350     1.3270     0.0170 ca         1 G30       0.040900
      6 F14         -1.1530     2.4820    -0.1080 f          1 G30      -0.150900
      7 C10         -1.8820    -1.0510    -0.1540 ca         1 G30      -0.191000
      8 C9          -1.1640     0.1380    -0.2860 ca         1 G30       0.117600
      9 N5           0.1550     0.2290    -0.7000 ns         1 G30      -0.454100
     10 C4           1.0230    -0.7750    -1.0220 c          1 G30       0.759100
     11 O15          0.7200    -1.9520    -1.0270 o          1 G30      -0.589100
     12 C3           2.3430    -0.2530    -1.4990 cx         1 G30      -0.238700
     13 C1           3.3580     0.3130    -0.5360 cx         1 G30      -0.210700
     14 C2           3.5930    -1.0010    -1.2330 cx         1 G30      -0.095400
     15 C6           3.0610     0.3060     0.9500 c          1 G30       0.936600
     16 O8           3.5750     1.2180     1.6240 o          1 G30      -0.824300
     17 O7           2.3290    -0.6150     1.3670 o          1 G30      -0.824300
     18 H12         -4.8900     0.1770     0.8760 ha         1 G30       0.139000
     19 H13         -3.6130     2.3130     0.6470 ha         1 G30       0.138000
     20 H10         -1.4270    -2.0030    -0.3710 ha         1 G30       0.189000
     21 HN5          0.5440     1.1590    -0.7280 hn         1 G30       0.338500
     22 H3           2.2660     0.2640    -2.4520 hc         1 G30       0.062700
     23 H1           3.9240     1.1610    -0.9070 hc         1 G30       0.060700
     24 H2           3.5280    -1.8960    -0.6280 hc         1 G30       0.067200
     25 H2A          4.3380    -1.0380    -2.0170 hc         1 G30       0.067200
@<TRIPOS>BOND
     1     1     2 1   
     2     2     3 ar  
     3     2     7 ar  
     4     3     4 ar  
     5     3    18 1   
     6     4     5 ar  
     7     4    19 1   
     8     5     6 1   
     9     5     8 ar  
    10     7     8 ar  
    11     7    20 1   
    12     8     9 1   
    13     9    10 1   
    14     9    21 1   
    15    10    11 2   
    16    10    12 1   
    17    12    13 1   
    18    12    14 1   
    19    12    22 1   
    20    13    14 1   
    21    13    15 1   
    22    13    23 1   
    23    14    24 1   
    24    14    25 1   
    25    15    16 1   
    26    15    17 1   
@<TRIPOS>SUBSTRUCTURE
     1 G30         1 TEMP              0 ****  ****    0 ROOT
