@<TRIPOS>MOLECULE
G34
   83    87     1     0     0
SMALL
abcg2


@<TRIPOS>ATOM
      1 C8           7.6550    -5.1350     6.3700 c6         1 G34      -0.071400
      2 C5           5.0510    -4.6620     4.9460 c6         1 G34      -0.005000
      3 C6           5.2130    -4.4330     6.4730 c6         1 G34      -0.055700
      4 N1          -0.3700     3.2050     6.8040 n3         1 G34      -0.688600
      5 C2           7.2500    -7.8600     5.0480 c5         1 G34      -0.197400
      6 C4           6.0950    -5.7360     4.5430 c5         1 G34      -0.161700
      7 O2           9.1320    -4.3390     1.7660 oh         1 G34      -0.654000
      8 C1           8.2560    -6.8100     4.5980 c5         1 G34      -0.074400
      9 C3           5.9160    -7.1490     5.1010 c          1 G34       0.579100
     10 C7           6.6570    -4.0830     6.8330 c6         1 G34      -0.078400
     11 C9           7.5860    -5.4470     4.8630 c5         1 G34      -0.037000
     12 C10          8.2720    -4.3370     4.0220 c3         1 G34      -0.041700
     13 C11          7.9350    -4.4330     2.5070 c3         1 G34       0.191300
     14 C12          6.9070    -3.3870     1.9860 c3         1 G34      -0.036800
     15 C13          5.5060    -3.5590     2.6210 c3         1 G34      -0.085400
     16 C14          5.3320    -3.3660     4.1350 c3         1 G34       0.183300
     17 C15          3.6350    -5.1550     4.6060 c3         1 G34      -0.088100
     18 C16          4.2540    -3.4470     7.1370 c3         1 G34      -0.082100
     19 C17          9.7850    -4.3160     4.2710 c3         1 G34      -0.075100
     20 C18          6.6860    -3.6390     0.4890 c3         1 G34      -0.096100
     21 C19          7.4180    -1.9920     2.2380 c2         1 G34      -0.207200
     22 C20          7.7400    -1.0810     1.3270 c2         1 G34      -0.310000
     23 O3           4.2010    -2.4870     4.3190 os         1 G34      -0.455100
     24 C21          4.3820    -1.2080     4.5970 c          1 G34       0.613100
     25 O4           5.4470    -0.6730     4.7730 o          1 G34      -0.470000
     26 C22          3.0570    -0.4960     4.6690 c3         1 G34      -0.025400
     27 S1           3.3020     1.1750     5.3140 ss         1 G34      -0.369000
     28 C23          1.5960     1.8010     5.2030 c6         1 G34       0.071300
     29 C24          0.6350     1.1020     6.1640 c6         1 G34      -0.057400
     30 C25         -0.6770     1.8770     6.2720 c5         1 G34       0.158000
     31 C26         -1.3150     2.1390     4.8860 c5         1 G34      -0.109400
     32 C27         -0.6970     3.4850     4.4540 c5         1 G34      -0.109400
     33 C28          0.2230     3.8590     5.6390 c5         1 G34       0.158000
     34 C29          1.6370     3.3080     5.4580 c6         1 G34      -0.057400
     35 H81          8.6660    -4.8350     6.6510 hc         1 G34       0.043700
     36 H82          7.4630    -6.0520     6.9380 hc         1 G34       0.043700
     37 H6           4.9950    -5.4070     6.9270 hc         1 G34       0.054700
     38 H21          7.4710    -8.2680     6.0370 hc         1 G34       0.072700
     39 H22          7.1820    -8.7140     4.3710 hc         1 G34       0.072700
     40 H4           5.9990    -5.9300     3.4640 hc         1 G34       0.068700
     41 HO2          8.9760    -4.7030     0.8900 ho         1 G34       0.441000
     42 H11A         9.2080    -6.8960     5.1230 hc         1 G34       0.053200
     43 H12          8.4680    -6.9260     3.5320 hc         1 G34       0.053200
     44 H71          6.7330    -3.9820     7.9200 hc         1 G34       0.046700
     45 H72          6.9180    -3.0950     6.4370 hc         1 G34       0.046700
     46 H10          7.9290    -3.3770     4.4090 hc         1 G34       0.062700
     47 H11          7.4880    -5.4170     2.3080 h1         1 G34       0.020700
     48 H131         5.1120    -4.5320     2.3170 hc         1 G34       0.052700
     49 H132         4.8630    -2.8330     2.1190 hc         1 G34       0.052700
     50 H14          6.1960    -2.8580     4.5500 h1         1 G34       0.078700
     51 H151         3.3410    -5.9840     5.2420 hc         1 G34       0.045367
     52 H152         2.8920    -4.3720     4.7320 hc         1 G34       0.045367
     53 H153         3.5740    -5.5000     3.5720 hc         1 G34       0.045367
     54 H161         4.2970    -3.5900     8.2190 hc         1 G34       0.035033
     55 H162         4.5210    -2.4060     6.9560 hc         1 G34       0.035033
     56 H163         3.2170    -3.5930     6.8340 hc         1 G34       0.035033
     57 H171        10.2420    -3.4550     3.7860 hc         1 G34       0.038367
     58 H172         9.9960    -4.2210     5.3350 hc         1 G34       0.038367
     59 H173        10.2910    -5.2090     3.9090 hc         1 G34       0.038367
     60 H181         5.8940    -2.9970     0.1020 hc         1 G34       0.037700
     61 H182         7.5720    -3.4510    -0.1170 hc         1 G34       0.037700
     62 H183         6.3750    -4.6730     0.3220 hc         1 G34       0.037700
     63 H19          7.5220    -1.6980     3.2780 ha         1 G34       0.181000
     64 H201         8.0910    -0.1020     1.6280 ha         1 G34       0.161000
     65 H202         7.6710    -1.2570     0.2610 ha         1 G34       0.161000
     66 H221         2.3690    -1.0680     5.2940 h1         1 G34       0.084700
     67 H222         2.6210    -0.4550     3.6670 h1         1 G34       0.084700
     68 H23          1.2660     1.6290     4.1740 h1         1 G34       0.059700
     69 H241         1.0880     1.0360     7.1570 hc         1 G34       0.058200
     70 H242         0.4360     0.0820     5.8270 hc         1 G34       0.058200
     71 H25         -1.3530     1.3450     6.9460 h1         1 G34       0.066200
     72 H261        -2.3990     2.2150     4.9730 hc         1 G34       0.046950
     73 H262        -1.1130     1.3320     4.1790 hc         1 G34       0.046950
     74 H271        -0.1470     3.4180     3.5130 hc         1 G34       0.046950
     75 H272        -1.4680     4.2440     4.3130 hc         1 G34       0.046950
     76 H28          0.2780     4.9380     5.7990 h1         1 G34       0.066200
     77 H291         2.1360     3.8120     4.6260 hc         1 G34       0.058200
     78 H292         2.2100     3.5250     6.3640 hc         1 G34       0.058200
     79 H301        -1.9450     3.3530     8.1620 h1         1 G34       0.032367
     80 H302        -2.3590     4.0070     6.5750 h1         1 G34       0.032367
     81 H303        -1.2660     4.8930     7.6440 h1         1 G34       0.032367
     82 O1           4.9040    -7.6690     5.5030 o          1 G34      -0.517100
     83 C30         -1.5440     3.8940     7.3040 c3         1 G34       0.144100
@<TRIPOS>BOND
     1     1    10 1   
     2     1    11 1   
     3     1    35 1   
     4     1    36 1   
     5     2     3 1   
     6     2     6 1   
     7     2    16 1   
     8     2    17 1   
     9     3    10 1   
    10     3    18 1   
    11     3    37 1   
    12     4    30 1   
    13     4    33 1   
    14     4    83 1   
    15     5     8 1   
    16     5     9 1   
    17     5    38 1   
    18     5    39 1   
    19     6     9 1   
    20     6    11 1   
    21     6    40 1   
    22     7    13 1   
    23     7    41 1   
    24     8    11 1   
    25     8    42 1   
    26     8    43 1   
    27     9    82 2   
    28    10    44 1   
    29    10    45 1   
    30    11    12 1   
    31    12    13 1   
    32    12    19 1   
    33    12    46 1   
    34    13    14 1   
    35    13    47 1   
    36    14    15 1   
    37    14    20 1   
    38    14    21 1   
    39    15    16 1   
    40    15    48 1   
    41    15    49 1   
    42    16    23 1   
    43    16    50 1   
    44    17    51 1   
    45    17    52 1   
    46    17    53 1   
    47    18    54 1   
    48    18    55 1   
    49    18    56 1   
    50    19    57 1   
    51    19    58 1   
    52    19    59 1   
    53    20    60 1   
    54    20    61 1   
    55    20    62 1   
    56    21    22 2   
    57    21    63 1   
    58    22    64 1   
    59    22    65 1   
    60    23    24 1   
    61    24    25 2   
    62    24    26 1   
    63    26    27 1   
    64    26    66 1   
    65    26    67 1   
    66    27    28 1   
    67    28    29 1   
    68    28    34 1   
    69    28    68 1   
    70    29    30 1   
    71    29    69 1   
    72    29    70 1   
    73    30    31 1   
    74    30    71 1   
    75    31    32 1   
    76    31    72 1   
    77    31    73 1   
    78    32    33 1   
    79    32    74 1   
    80    32    75 1   
    81    33    34 1   
    82    33    76 1   
    83    34    77 1   
    84    34    78 1   
    85    79    83 1   
    86    80    83 1   
    87    81    83 1   
@<TRIPOS>SUBSTRUCTURE
     1 G34         1 TEMP              0 ****  ****    0 ROOT
