@<TRIPOS>MOLECULE
G34
   83    87     1     0     0
SMALL
No Charge or Current Charge


@<TRIPOS>ATOM
      1 C8           7.8080    -5.3490     6.4360 c6         1 G34      -0.071400
      2 C5           4.9320    -4.7030     4.9550 c6         1 G34      -0.005000
      3 C6           5.2650    -4.5270     6.5100 c6         1 G34      -0.055700
      4 N1          -0.5090     3.5490     6.6820 n3         1 G34      -0.688600
      5 C2           6.9730    -7.9820     4.3550 c5         1 G34      -0.197400
      6 C4           5.7590    -5.8990     4.4090 c5         1 G34      -0.161700
      7 O2           9.1840    -4.5670     1.6810 oh         1 G34      -0.654000
      8 C1           8.2850    -7.1030     4.5740 c5         1 G34      -0.074400
      9 C3           5.7190    -7.3160     4.9860 c          1 G34       0.579100
     10 C7           6.7840    -4.2520     6.8580 c6         1 G34      -0.078400
     11 C9           7.8280    -5.6330     4.9060 c5         1 G34      -0.037000
     12 C10          8.4830    -4.4960     4.0520 c3         1 G34      -0.041700
     13 C11          8.0260    -4.5620     2.5320 c3         1 G34       0.191300
     14 C12          7.0340    -3.4220     2.0220 c3         1 G34      -0.036800
     15 C13          5.5580    -3.4320     2.6190 c3         1 G34      -0.085400
     16 C14          5.2950    -3.3540     4.1670 c3         1 G34       0.183300
     17 C15          3.4230    -5.0690     4.7140 c3         1 G34      -0.088100
     18 C16          4.4010    -3.4470     7.2330 c3         1 G34      -0.082100
     19 C17         10.0250    -4.4090     4.2710 c3         1 G34      -0.075100
     20 C18          6.7960    -3.6060     0.4820 c3         1 G34      -0.096100
     21 C19          7.6870    -2.0540     2.2740 c2         1 G34      -0.207200
     22 C20          8.5300    -1.3810     1.4690 c2         1 G34      -0.310000
     23 O3           4.1870    -2.4410     4.3420 os         1 G34      -0.455100
     24 C21          4.4040    -1.0900     4.4230 c          1 G34       0.613100
     25 O4           5.5070    -0.5610     4.4520 o          1 G34      -0.470000
     26 C22          3.0730    -0.3420     4.6010 c3         1 G34      -0.025400
     27 S1           3.2510     1.4640     5.0350 ss         1 G34      -0.369000
     28 C23          1.4710     1.9610     5.1320 c6         1 G34       0.071300
     29 C24          0.7810     1.4620     6.4240 c6         1 G34      -0.057400
     30 C25         -0.6430     2.0700     6.5980 c5         1 G34       0.158000
     31 C26         -1.5790     1.9040     5.3570 c5         1 G34      -0.109400
     32 C27         -1.2640     3.1610     4.4710 c5         1 G34      -0.109400
     33 C28         -0.1750     3.9340     5.2840 c5         1 G34       0.158000
     34 C29          1.2910     3.4900     4.9970 c6         1 G34      -0.057400
     35 H81          8.8080    -5.0860     6.8000 hc         1 G34       0.043700
     36 H82          7.5430    -6.2720     6.9710 hc         1 G34       0.043700
     37 H6           4.9850    -5.4540     7.0240 hc         1 G34       0.054700
     38 H21          7.0940    -8.9990     4.7420 hc         1 G34       0.072700
     39 H22          6.8070    -8.0210     3.2720 hc         1 G34       0.072700
     40 H4           5.6580    -5.9930     3.3270 hc         1 G34       0.068700
     41 HO2          9.4030    -3.6210     1.5470 ho         1 G34       0.441000
     42 H11A         8.9010    -7.5130     5.3830 hc         1 G34       0.053200
     43 H12          8.9160    -7.1430     3.6780 hc         1 G34       0.053200
     44 H71          6.8650    -4.1530     7.9490 hc         1 G34       0.046700
     45 H72          7.1040    -3.2740     6.4820 hc         1 G34       0.046700
     46 H10          8.1300    -3.5430     4.4490 hc         1 G34       0.062700
     47 H11          7.5190    -5.5200     2.3720 h1         1 G34       0.020700
     48 H131         5.0020    -4.2840     2.2140 hc         1 G34       0.052700
     49 H132         5.0530    -2.5710     2.1650 hc         1 G34       0.052700
     50 H14          6.1810    -2.9210     4.6300 h1         1 G34       0.078700
     51 H151         3.1420    -5.9830     5.2490 hc         1 G34       0.045367
     52 H152         2.7260    -4.2920     5.0450 hc         1 G34       0.045367
     53 H153         3.2210    -5.2420     3.6500 hc         1 G34       0.045367
     54 H161         4.5690    -3.4800     8.3160 hc         1 G34       0.035033
     55 H162         4.6550    -2.4320     6.9070 hc         1 G34       0.035033
     56 H163         3.3270    -3.5970     7.0830 hc         1 G34       0.035033
     57 H171        10.4460    -3.5460     3.7410 hc         1 G34       0.038367
     58 H172        10.2720    -4.2780     5.3290 hc         1 G34       0.038367
     59 H173        10.5320    -5.3150     3.9170 hc         1 G34       0.038367
     60 H181         6.1420    -2.8170     0.0890 hc         1 G34       0.037700
     61 H182         7.7180    -3.5770    -0.1070 hc         1 G34       0.037700
     62 H183         6.3170    -4.5710     0.2760 hc         1 G34       0.037700
     63 H19          7.4370    -1.6100     3.2370 ha         1 G34       0.181000
     64 H201         8.9360    -0.4130     1.7690 ha         1 G34       0.161000
     65 H202         8.8430    -1.7430     0.4900 ha         1 G34       0.161000
     66 H221         2.5140    -0.8550     5.3920 h1         1 G34       0.084700
     67 H222         2.5100    -0.4430     3.6650 h1         1 G34       0.084700
     68 H23          0.9740     1.4890     4.2720 h1         1 G34       0.059700
     69 H241         1.3920     1.7270     7.2980 hc         1 G34       0.058200
     70 H242         0.7120     0.3670     6.4130 hc         1 G34       0.058200
     71 H25         -1.0910     1.6400     7.5060 h1         1 G34       0.066200
     72 H261        -2.6330     1.8950     5.6580 hc         1 G34       0.046950
     73 H262        -1.3990     0.9620     4.8270 hc         1 G34       0.046950
     74 H271        -0.9150     2.8910     3.4680 hc         1 G34       0.046950
     75 H272        -2.1610     3.7760     4.3340 hc         1 G34       0.046950
     76 H28         -0.2410     5.0200     5.1230 h1         1 G34       0.066200
     77 H291         1.5830     3.8090     3.9880 hc         1 G34       0.058200
     78 H292         1.9640     4.0070     5.6940 hc         1 G34       0.058200
     79 H301        -1.8380     3.9200     8.3060 h1         1 G34       0.032367
     80 H302        -2.5930     4.0900     6.7070 h1         1 G34       0.032367
     81 H303        -1.4820     5.3410     7.3040 h1         1 G34       0.032367
     82 O1           5.1120    -7.7090     5.9730 o          1 G34      -0.517100
     83 C30         -1.6690     4.2590     7.2760 c3         1 G34       0.144100
@<TRIPOS>BOND
     1     1    10 1   
     2     1    11 1   
     3     1    35 1   
     4     1    36 1   
     5     2     3 1   
     6     2     6 1   
     7     2    16 1   
     8     2    17 1   
     9     3    10 1   
    10     3    18 1   
    11     3    37 1   
    12     4    30 1   
    13     4    33 1   
    14     4    83 1   
    15     5     8 1   
    16     5     9 1   
    17     5    38 1   
    18     5    39 1   
    19     6     9 1   
    20     6    11 1   
    21     6    40 1   
    22     7    13 1   
    23     7    41 1   
    24     8    11 1   
    25     8    42 1   
    26     8    43 1   
    27     9    82 2   
    28    10    44 1   
    29    10    45 1   
    30    11    12 1   
    31    12    13 1   
    32    12    19 1   
    33    12    46 1   
    34    13    14 1   
    35    13    47 1   
    36    14    15 1   
    37    14    20 1   
    38    14    21 1   
    39    15    16 1   
    40    15    48 1   
    41    15    49 1   
    42    16    23 1   
    43    16    50 1   
    44    17    51 1   
    45    17    52 1   
    46    17    53 1   
    47    18    54 1   
    48    18    55 1   
    49    18    56 1   
    50    19    57 1   
    51    19    58 1   
    52    19    59 1   
    53    20    60 1   
    54    20    61 1   
    55    20    62 1   
    56    21    22 2   
    57    21    63 1   
    58    22    64 1   
    59    22    65 1   
    60    23    24 1   
    61    24    25 2   
    62    24    26 1   
    63    26    27 1   
    64    26    66 1   
    65    26    67 1   
    66    27    28 1   
    67    28    29 1   
    68    28    34 1   
    69    28    68 1   
    70    29    30 1   
    71    29    69 1   
    72    29    70 1   
    73    30    31 1   
    74    30    71 1   
    75    31    32 1   
    76    31    72 1   
    77    31    73 1   
    78    32    33 1   
    79    32    74 1   
    80    32    75 1   
    81    33    34 1   
    82    33    76 1   
    83    34    77 1   
    84    34    78 1   
    85    79    83 1   
    86    80    83 1   
    87    81    83 1   
@<TRIPOS>SUBSTRUCTURE
     1 G34         1 TEMP              0 ****  ****    0 ROOT
