@<TRIPOS>MOLECULE
G37
  102   107     1     0     0
SMALL
No Charge or Current Charge


@<TRIPOS>ATOM
      1 C1          -2.0330    -0.9790     4.5090 c3         1 G37      -0.194400
      2 C2          -2.7020     0.0010     2.2170 c3         1 G37       0.064700
      3 C3          -0.5920    -0.7990     1.0990 c          1 G37       0.564100
      4 C4           0.5800    -0.1240     0.2760 c5         1 G37       0.099500
      5 C5           0.7480    -1.7250    -1.5040 c5         1 G37       0.314500
      6 C6           1.9910    -0.6920     0.6660 c5         1 G37       0.112000
      7 C7           2.1260    -1.2350     2.1140 c3         1 G37      -0.079100
      8 C8           3.1040     0.3630     0.4400 c3         1 G37      -0.079100
      9 C9           1.0040    -1.9790    -3.0090 c3         1 G37       0.043700
     10 C11          3.5220     0.1690    -5.0260 c3         1 G37      -0.111100
     11 C12          2.8610     0.9300    -6.1710 ca         1 G37      -0.074300
     12 C13          1.7400     1.7470    -5.9220 ca         1 G37      -0.093000
     13 C14          1.1340     2.4580    -6.9720 ca         1 G37      -0.111000
     14 C15          1.6470     2.3600    -8.2760 ca         1 G37      -0.104000
     15 C16          2.7590     1.5410    -8.5320 ca         1 G37      -0.111000
     16 C17          3.3640     0.8270    -7.4830 ca         1 G37      -0.093000
     17 C18         -0.3350    -2.1940    -3.7580 c          1 G37       0.586100
     18 C19         -1.7490    -1.4700    -5.7040 c3         1 G37       0.146300
     19 C20         -2.8310     0.1140     3.7660 c3         1 G37       0.178300
     20 C21         -0.5680    -0.0480    -9.0610 ca         1 G37      -0.112500
     21 C22         -0.6840    -0.8730    -7.9290 ca         1 G37      -0.101000
     22 C23         -1.6120    -0.5620    -6.9150 ca         1 G37      -0.115300
     23 C24         -2.4150     0.5890    -7.0410 ca         1 G37      -0.101000
     24 C25         -2.2960     1.4150    -8.1720 ca         1 G37      -0.112500
     25 C26         -1.3750     1.0950    -9.1840 ca         1 G37      -0.106000
     26 C27          2.9150     1.4770    11.8860 ca         1 G37      -0.091000
     27 C28          1.5930     0.9840    11.9130 ca         1 G37      -0.113000
     28 C29          1.0070     0.6420    10.6880 ca         1 G37      -0.076200
     29 C30          1.6550     0.7650     9.4930 ca         1 G37       0.073400
     30 C31          2.9700     1.2520     9.4400 ca         1 G37      -0.049000
     31 C32          3.6010     1.6100    10.6530 ca         1 G37      -0.131000
     32 C33         -0.3080    -0.0170     9.0330 cc         1 G37       0.397800
     33 C34         -1.5320    -0.5480     8.3150 c3         1 G37       0.093700
     34 C35         -3.5230    -0.2130    -0.8410 ca         1 G37      -0.110500
     35 C36         -3.3300     0.9500    -0.0680 ca         1 G37      -0.088300
     36 C37         -2.7700     2.0940    -0.6720 ca         1 G37      -0.110500
     37 C38         -2.4030     2.0730    -2.0280 ca         1 G37      -0.110500
     38 C39         -2.5930     0.9090    -2.7910 ca         1 G37      -0.120000
     39 C40         -3.1550    -0.2330    -2.1970 ca         1 G37      -0.110500
     40 C41         -3.6480     0.9430     1.4280 c3         1 G37      -0.051100
     41 C42         -2.3920    -1.0120     5.9910 c          1 G37       0.607100
     42 N1          -1.3210     0.1880     1.7360 ns         1 G37      -0.494900
     43 N2           0.4850    -0.2910    -1.2170 n7         1 G37      -0.893400
     44 N3           1.8370    -0.9060    -3.6130 ns         1 G37      -0.509900
     45 N4          -0.5870    -1.3630    -4.8280 ns         1 G37      -0.501900
     46 N5          -0.2310     0.1500    10.4150 na         1 G37      -0.310600
     47 N6           0.8470     0.3560     8.4360 nd         1 G37      -0.596100
     48 N7          -1.4080    -0.5840     6.8470 ns         1 G37      -0.500900
     49 O1          -0.9000    -1.9840     1.1420 o          1 G37      -0.577100
     50 O2           2.7860    -2.1270    -5.2770 o          1 G37      -0.579100
     51 O3          -1.1310    -3.0630    -3.4300 o          1 G37      -0.593100
     52 O4          -2.3700     1.3970     4.2140 oh         1 G37      -0.647000
     53 O5          -3.4660    -1.4330     6.3970 o          1 G37      -0.606100
     54 S1           2.2980    -2.0750    -0.5400 ss         1 G37      -0.406000
     55 H11         -2.3000    -1.9510     4.0770 hc         1 G37       0.074200
     56 H12         -0.9590    -0.8040     4.3760 hc         1 G37       0.074200
     57 H2          -3.0130    -1.0200     1.9560 h1         1 G37       0.088700
     58 H4           0.5540     0.9480     0.5150 h1         1 G37       0.078700
     59 H5          -0.0520    -2.3850    -1.1370 h2         1 G37       0.106700
     60 H71          3.1540    -1.5550     2.3230 hc         1 G37       0.047200
     61 H72          1.8610    -0.4680     2.8520 hc         1 G37       0.047200
     62 H73          1.4850    -2.1070     2.2890 hc         1 G37       0.047200
     63 H81          4.1010    -0.0620     0.6110 hc         1 G37       0.047200
     64 H82          3.0850     0.7490    -0.5860 hc         1 G37       0.047200
     65 H83          2.9850     1.2170     1.1170 hc         1 G37       0.047200
     66 H9           1.5400    -2.9310    -3.0990 h1         1 G37       0.112700
     67 H111         3.5830     0.8350    -4.1570 hc         1 G37       0.064200
     68 H112         4.5320    -0.1440    -5.3170 hc         1 G37       0.064200
     69 H13          1.3380     1.8360    -4.9150 ha         1 G37       0.111500
     70 H14          0.2670     3.0840    -6.7760 ha         1 G37       0.111500
     71 H15          1.1780     2.9100    -9.0880 ha         1 G37       0.112000
     72 H16          3.1530     1.4590    -9.5420 ha         1 G37       0.111500
     73 H17          4.2260     0.1970    -7.6910 ha         1 G37       0.111500
     74 H191        -1.8480    -2.5110    -6.0400 h1         1 G37       0.060700
     75 H192        -2.6520    -1.2120    -5.1360 h1         1 G37       0.060700
     76 H20         -3.8960    -0.0130     4.0170 h1         1 G37       0.100700
     77 H21          0.1500    -0.2930    -9.8400 ha         1 G37       0.115500
     78 H22         -0.0550    -1.7570    -7.8410 ha         1 G37       0.122000
     79 H24         -3.1360     0.8420    -6.2670 ha         1 G37       0.122000
     80 H25         -2.9190     2.3020    -8.2660 ha         1 G37       0.115500
     81 H26         -1.2840     1.7340   -10.0600 ha         1 G37       0.113000
     82 H28          1.0520     0.8750    12.8500 ha         1 G37       0.119000
     83 H31          3.4870     1.3500     8.4900 ha         1 G37       0.129000
     84 H32          4.6190     1.9910    10.6400 ha         1 G37       0.116000
     85 H341        -2.3920     0.0800     8.5780 h1         1 G37       0.064700
     86 H342        -1.7340    -1.5650     8.6740 h1         1 G37       0.064700
     87 H35         -3.9440    -1.1070    -0.3870 ha         1 G37       0.115000
     88 H37         -2.6040     2.9960    -0.0880 ha         1 G37       0.115000
     89 H38         -1.9660     2.9580    -2.4870 ha         1 G37       0.118500
     90 H39         -2.3040     0.8960    -3.8390 ha         1 G37       0.118000
     91 H40         -3.3040    -1.1370    -2.7850 ha         1 G37       0.118500
     92 H411        -4.6870     0.6320     1.5930 hc         1 G37       0.066700
     93 H412        -3.5690     1.9600     1.8310 hc         1 G37       0.066700
     94 HN1         -1.0080     1.1390     1.5850 hn         1 G37       0.304500
     95 HN2         -0.4590    -0.0370    -1.5410 hn         1 G37       0.452000
     96 HN3          1.8570    -0.0170    -3.1230 hn         1 G37       0.333500
     97 HN4          0.1230    -0.6740    -5.0460 hn         1 G37       0.319500
     98 HN5         -0.9660    -0.0590    11.0790 hn         1 G37       0.361000
     99 HN7         -0.5420    -0.2550     6.4340 hn         1 G37       0.346500
    100 HO4         -1.4700     1.5190     3.8450 ho         1 G37       0.437000
    101 C10          2.7070    -1.0730    -4.6630 c          1 G37       0.596100
    102 H27          3.4090     1.7550    12.8140 ha         1 G37       0.115000
@<TRIPOS>BOND
     1     1    19 1   
     2     1    41 1   
     3     1    55 1   
     4     1    56 1   
     5     2    19 1   
     6     2    40 1   
     7     2    42 1   
     8     2    57 1   
     9     3     4 1   
    10     3    42 1   
    11     3    49 2   
    12     4     6 1   
    13     4    43 1   
    14     4    58 1   
    15     5     9 1   
    16     5    43 1   
    17     5    54 1   
    18     5    59 1   
    19     6     7 1   
    20     6     8 1   
    21     6    54 1   
    22     7    60 1   
    23     7    61 1   
    24     7    62 1   
    25     8    63 1   
    26     8    64 1   
    27     8    65 1   
    28     9    17 1   
    29     9    44 1   
    30     9    66 1   
    31    10    11 1   
    32    10    67 1   
    33    10    68 1   
    34    10   101 1   
    35    11    12 ar  
    36    11    16 ar  
    37    12    13 ar  
    38    12    69 1   
    39    13    14 ar  
    40    13    70 1   
    41    14    15 ar  
    42    14    71 1   
    43    15    16 ar  
    44    15    72 1   
    45    16    73 1   
    46    17    45 1   
    47    17    51 2   
    48    18    22 1   
    49    18    45 1   
    50    18    74 1   
    51    18    75 1   
    52    19    52 1   
    53    19    76 1   
    54    20    21 ar  
    55    20    25 ar  
    56    20    77 1   
    57    21    22 ar  
    58    21    78 1   
    59    22    23 ar  
    60    23    24 ar  
    61    23    79 1   
    62    24    25 ar  
    63    24    80 1   
    64    25    81 1   
    65    26    27 ar  
    66    26    31 ar  
    67    26   102 1   
    68    27    28 ar  
    69    27    82 1   
    70    28    29 ar  
    71    28    46 1   
    72    29    30 ar  
    73    29    47 1   
    74    30    31 ar  
    75    30    83 1   
    76    31    84 1   
    77    32    33 1   
    78    32    46 1   
    79    32    47 2   
    80    33    48 1   
    81    33    85 1   
    82    33    86 1   
    83    34    35 ar  
    84    34    39 ar  
    85    34    87 1   
    86    35    36 ar  
    87    35    40 1   
    88    36    37 ar  
    89    36    88 1   
    90    37    38 ar  
    91    37    89 1   
    92    38    39 ar  
    93    38    90 1   
    94    39    91 1   
    95    40    92 1   
    96    40    93 1   
    97    41    48 1   
    98    41    53 2   
    99    42    94 1   
   100    43    95 1   
   101    44    96 1   
   102    44   101 1   
   103    45    97 1   
   104    46    98 1   
   105    48    99 1   
   106    50   101 2   
   107    52   100 1   
@<TRIPOS>SUBSTRUCTURE
     1 G37         1 TEMP              0 ****  ****    0 ROOT
