@<TRIPOS>MOLECULE
G37
  102   107     1     0     0
SMALL
abcg2


@<TRIPOS>ATOM
      1 C1          -2.2880    -0.1560     4.5530 c3         1 G37      -0.194400
      2 C2          -3.2060     0.3590     2.2710 c3         1 G37       0.064700
      3 C3          -1.1010    -0.0090     1.0610 c          1 G37       0.564100
      4 C4          -0.1230     0.6970     0.1210 c5         1 G37       0.099500
      5 C5           0.7360    -1.1690    -1.1360 c5         1 G37       0.314500
      6 C6           1.3220     0.7540     0.6580 c5         1 G37       0.112000
      7 C7           1.4050     0.8380     2.1770 c3         1 G37      -0.079100
      8 C8           2.0610     1.9340     0.0350 c3         1 G37      -0.079100
      9 C9           1.3130    -1.4860    -2.5250 c3         1 G37       0.043700
     10 C11          3.2040     1.0010    -4.6390 c3         1 G37      -0.111100
     11 C12          3.5370     1.0240    -6.1010 ca         1 G37      -0.074300
     12 C13          2.5850     1.4250    -7.0350 ca         1 G37      -0.093000
     13 C14          2.8820     1.4320    -8.3910 ca         1 G37      -0.111000
     14 C15          4.1370     1.0330    -8.8320 ca         1 G37      -0.104000
     15 C16          5.0920     0.6300    -7.9080 ca         1 G37      -0.111000
     16 C17          4.7920     0.6250    -6.5530 ca         1 G37      -0.093000
     17 C18          0.2260    -2.1710    -3.3590 c          1 G37       0.586100
     18 C19         -1.5340    -1.8670    -5.0370 c3         1 G37       0.146300
     19 C20         -3.3020     0.6650     3.7680 c3         1 G37       0.178300
     20 C21         -0.6650     0.0190    -8.2110 ca         1 G37      -0.112500
     21 C22         -0.5420    -0.7440    -7.0600 ca         1 G37      -0.101000
     22 C23         -1.6590    -1.0170    -6.2720 ca         1 G37      -0.115300
     23 C24         -2.8950    -0.5090    -6.6560 ca         1 G37      -0.101000
     24 C25         -3.0190     0.2560    -7.8100 ca         1 G37      -0.112500
     25 C26         -1.9040     0.5210    -8.5910 ca         1 G37      -0.106000
     26 C27          3.9690    -1.0180    10.7810 ca         1 G37      -0.091000
     27 C28          2.6540    -0.7210    11.0940 ca         1 G37      -0.113000
     28 C29          1.7850    -0.5380    10.0250 ca         1 G37      -0.076200
     29 C30          2.2000    -0.6450     8.6880 ca         1 G37       0.073400
     30 C31          3.5290    -0.9440     8.3920 ca         1 G37      -0.049000
     31 C32          4.4010    -1.1270     9.4510 ca         1 G37      -0.131000
     32 C33          0.1210    -0.1880     8.6370 cc         1 G37       0.397800
     33 C34         -1.2650     0.1120     8.1760 c3         1 G37       0.093700
     34 C35         -4.2020    -0.4430    -0.6270 ca         1 G37      -0.110500
     35 C36         -4.1210     0.8060    -0.0130 ca         1 G37      -0.088300
     36 C37         -3.7070     1.8940    -0.7780 ca         1 G37      -0.110500
     37 C38         -3.3700     1.7420    -2.1170 ca         1 G37      -0.110500
     38 C39         -3.4470     0.4910    -2.7150 ca         1 G37      -0.120000
     39 C40         -3.8690    -0.6010    -1.9660 ca         1 G37      -0.110500
     40 C41         -4.3670     0.9610     1.4630 c3         1 G37      -0.051100
     41 C42         -2.4510     0.0050     6.0490 c          1 G37       0.607100
     42 N1          -1.9460     0.8140     1.7150 ns         1 G37      -0.494900
     43 N2          -0.0540     0.0450    -1.1680 n7         1 G37      -0.893400
     44 N3           1.8510    -0.3020    -3.1230 ns         1 G37      -0.509900
     45 N4          -0.4820    -1.3770    -4.1730 ns         1 G37      -0.501900
     46 N5           0.4480    -0.2430     9.9510 na         1 G37      -0.310600
     47 N6           1.1320    -0.4190     7.8490 nd         1 G37      -0.596100
     48 N7          -1.3040     0.0700     6.7380 ns         1 G37      -0.500900
     49 O1          -1.1280    -1.2240     1.1690 o          1 G37      -0.577100
     50 O2           2.9650    -1.3940    -4.7410 o          1 G37      -0.579100
     51 O3           0.0110    -3.3650    -3.2230 o          1 G37      -0.593100
     52 O4          -3.1740     2.0410     4.0380 oh         1 G37      -0.647000
     53 O5          -3.5480     0.0400     6.5900 o          1 G37      -0.606100
     54 S1           2.0550    -0.8280     0.0760 ss         1 G37      -0.406000
     55 H11         -2.4220    -1.2160     4.3190 hc         1 G37       0.074200
     56 H12         -1.2720     0.1000     4.2390 hc         1 G37       0.074200
     57 H2          -3.2340    -0.7260     2.1550 h1         1 G37       0.088700
     58 H4          -0.4620     1.7260    -0.0370 h1         1 G37       0.078700
     59 H5           0.1890    -2.0490    -0.7930 h2         1 G37       0.106700
     60 H71          2.4460     0.8920     2.4980 hc         1 G37       0.047200
     61 H72          0.9080     1.7440     2.5310 hc         1 G37       0.047200
     62 H73          0.9540    -0.0240     2.6660 hc         1 G37       0.047200
     63 H81          3.1280     1.8800     0.2500 hc         1 G37       0.047200
     64 H82          1.9390     1.9610    -1.0470 hc         1 G37       0.047200
     65 H83          1.6820     2.8750     0.4390 hc         1 G37       0.047200
     66 H9           2.0960    -2.2390    -2.4020 h1         1 G37       0.112700
     67 H111         2.4900     1.7910    -4.3950 hc         1 G37       0.064200
     68 H112         4.0990     1.2010    -4.0430 hc         1 G37       0.064200
     69 H13          1.6030     1.7390    -6.6990 ha         1 G37       0.111500
     70 H14          2.1340     1.7530    -9.1050 ha         1 G37       0.111500
     71 H15          4.3700     1.0390    -9.8890 ha         1 G37       0.112000
     72 H16          6.0730     0.3180    -8.2430 ha         1 G37       0.111500
     73 H17          5.5450     0.3170    -5.8380 ha         1 G37       0.111500
     74 H191        -1.2980    -2.8960    -5.3140 h1         1 G37       0.060700
     75 H192        -2.4900    -1.9010    -4.5060 h1         1 G37       0.060700
     76 H20         -4.3070     0.3850     4.0960 h1         1 G37       0.100700
     77 H21          0.2100     0.2180    -8.8170 ha         1 G37       0.115500
     78 H22          0.4310    -1.1270    -6.7730 ha         1 G37       0.122000
     79 H24         -3.7710    -0.7120    -6.0520 ha         1 G37       0.122000
     80 H25         -3.9880     0.6450    -8.0950 ha         1 G37       0.115500
     81 H26         -1.9970     1.1170    -9.4890 ha         1 G37       0.113000
     82 H28          2.3230    -0.6360    12.1210 ha         1 G37       0.119000
     83 H31          3.8630    -1.0300     7.3670 ha         1 G37       0.129000
     84 H32          5.4390    -1.3590     9.2520 ha         1 G37       0.116000
     85 H341        -1.5720     1.0920     8.5580 h1         1 G37       0.064700
     86 H342        -1.9580    -0.6190     8.6010 h1         1 G37       0.064700
     87 H35         -4.5260    -1.3050    -0.0560 ha         1 G37       0.115000
     88 H37         -3.6400     2.8740    -0.3190 ha         1 G37       0.115000
     89 H38         -3.0470     2.6000    -2.6920 ha         1 G37       0.118500
     90 H39         -3.1890     0.3760    -3.7600 ha         1 G37       0.118000
     91 H40         -3.9410    -1.5800    -2.4230 ha         1 G37       0.118500
     92 H411        -5.2900     0.4600     1.7640 hc         1 G37       0.066700
     93 H412        -4.4830     2.0190     1.7110 hc         1 G37       0.066700
     94 HN1         -1.8990     1.7920     1.4700 hn         1 G37       0.304500
     95 HN2         -0.9770    -0.1130    -1.5620 hn         1 G37       0.452000
     96 HN3          1.5620     0.5830    -2.7310 hn         1 G37       0.333500
     97 HN4         -0.2600    -0.3950    -4.2090 hn         1 G37       0.319500
     98 HN5         -0.1780    -0.0990    10.7280 hn         1 G37       0.361000
     99 HN7         -0.4180     0.0130     6.2590 hn         1 G37       0.346500
    100 HO4         -2.2580     2.3020     3.8910 ho         1 G37       0.437000
    101 C10          2.6670    -0.3470    -4.1940 c          1 G37       0.596100
    102 H27          4.6820    -1.1680    11.5820 ha         1 G37       0.115000
@<TRIPOS>BOND
     1     1    19 1   
     2     1    41 1   
     3     1    55 1   
     4     1    56 1   
     5     2    19 1   
     6     2    40 1   
     7     2    42 1   
     8     2    57 1   
     9     3     4 1   
    10     3    42 1   
    11     3    49 2   
    12     4     6 1   
    13     4    43 1   
    14     4    58 1   
    15     5     9 1   
    16     5    43 1   
    17     5    54 1   
    18     5    59 1   
    19     6     7 1   
    20     6     8 1   
    21     6    54 1   
    22     7    60 1   
    23     7    61 1   
    24     7    62 1   
    25     8    63 1   
    26     8    64 1   
    27     8    65 1   
    28     9    17 1   
    29     9    44 1   
    30     9    66 1   
    31    10    11 1   
    32    10    67 1   
    33    10    68 1   
    34    10   101 1   
    35    11    12 ar  
    36    11    16 ar  
    37    12    13 ar  
    38    12    69 1   
    39    13    14 ar  
    40    13    70 1   
    41    14    15 ar  
    42    14    71 1   
    43    15    16 ar  
    44    15    72 1   
    45    16    73 1   
    46    17    45 1   
    47    17    51 2   
    48    18    22 1   
    49    18    45 1   
    50    18    74 1   
    51    18    75 1   
    52    19    52 1   
    53    19    76 1   
    54    20    21 ar  
    55    20    25 ar  
    56    20    77 1   
    57    21    22 ar  
    58    21    78 1   
    59    22    23 ar  
    60    23    24 ar  
    61    23    79 1   
    62    24    25 ar  
    63    24    80 1   
    64    25    81 1   
    65    26    27 ar  
    66    26    31 ar  
    67    26   102 1   
    68    27    28 ar  
    69    27    82 1   
    70    28    29 ar  
    71    28    46 1   
    72    29    30 ar  
    73    29    47 1   
    74    30    31 ar  
    75    30    83 1   
    76    31    84 1   
    77    32    33 1   
    78    32    46 1   
    79    32    47 2   
    80    33    48 1   
    81    33    85 1   
    82    33    86 1   
    83    34    35 ar  
    84    34    39 ar  
    85    34    87 1   
    86    35    36 ar  
    87    35    40 1   
    88    36    37 ar  
    89    36    88 1   
    90    37    38 ar  
    91    37    89 1   
    92    38    39 ar  
    93    38    90 1   
    94    39    91 1   
    95    40    92 1   
    96    40    93 1   
    97    41    48 1   
    98    41    53 2   
    99    42    94 1   
   100    43    95 1   
   101    44    96 1   
   102    44   101 1   
   103    45    97 1   
   104    46    98 1   
   105    48    99 1   
   106    50   101 2   
   107    52   100 1   
@<TRIPOS>SUBSTRUCTURE
     1 G37         1 TEMP              0 ****  ****    0 ROOT
