@<TRIPOS>MOLECULE
G39
   43    43     1     0     0
SMALL
No Charge or Current Charge


@<TRIPOS>ATOM
      1 C1           3.8400    -0.5700    -0.1940 c          1 G39       0.709200
      2 O1A          3.9530    -1.7690    -0.4110 o          1 G39      -0.722000
      3 O1B          4.8050     0.1500     0.0170 o          1 G39      -0.722000
      4 C2           2.4480     0.0410    -0.1800 ce         1 G39      -0.145400
      5 C3           2.3510     1.5590     0.0790 c6         1 G39      -0.035200
      6 C4           0.9760     2.1630    -0.3030 c6         1 G39       0.149500
      7 C5          -0.1820     1.2820     0.2550 c6         1 G39       0.108700
      8 N5          -1.5060     1.9020     0.0030 ns         1 G39      -0.495900
      9 C10         -2.5890     1.8440     0.8480 c          1 G39       0.608100
     10 O10         -2.5310     1.3700     1.9730 o          1 G39      -0.599100
     11 C11         -3.8710     2.4390     0.2750 c3         1 G39      -0.183100
     12 C6          -0.0960    -0.1310    -0.3950 c6         1 G39       0.202500
     13 C7           1.3190    -0.6980    -0.3730 c2         1 G39      -0.300200
     14 O7          -0.9930    -1.0460     0.2710 os         1 G39      -0.459000
     15 C8          -1.4270    -2.2240    -0.4420 c3         1 G39       0.179300
     16 C9          -1.5130    -3.3740     0.5930 c3         1 G39      -0.084900
     17 C81         -2.8060    -1.9420    -1.1040 c3         1 G39      -0.084900
     18 C82         -2.8010    -0.9270    -2.2660 c3         1 G39      -0.086600
     19 C91         -0.1580    -3.7520     1.2290 c3         1 G39      -0.086600
     20 N4           0.8880     3.5670     0.1700 n8         1 G39      -0.990200
     21 H31          2.5540     1.7450     1.1430 hc         1 G39       0.065700
     22 H32          3.1340     2.0870    -0.4810 hc         1 G39       0.065700
     23 H4           0.8840     2.1940    -1.3990 h1         1 G39       0.003700
     24 H5          -0.0390     1.1730     1.3390 h1         1 G39       0.114700
     25 HN5         -1.6690     2.3160    -0.9060 hn         1 G39       0.288500
     26 H111        -3.6740     3.4640    -0.0570 hc         1 G39       0.048700
     27 H112        -4.1090     1.9310    -0.6660 hc         1 G39       0.048700
     28 H113        -4.7090     2.3950     0.9800 hc         1 G39       0.048700
     29 H6          -0.3970    -0.0370    -1.4470 h1         1 G39       0.010700
     30 H7           1.3950    -1.7700    -0.5500 ha         1 G39       0.198000
     31 H8          -0.7070    -2.5120    -1.2200 h1         1 G39       0.042700
     32 H91         -2.2190    -3.0990     1.3870 hc         1 G39       0.033200
     33 H92         -1.9240    -4.2640     0.1020 hc         1 G39       0.033200
     34 H811        -3.2000    -2.8890    -1.4920 hc         1 G39       0.033200
     35 H812        -3.5150    -1.6050    -0.3380 hc         1 G39       0.033200
     36 H821        -2.6030     0.0870    -1.9040 hc         1 G39       0.034200
     37 H822        -2.0420    -1.1910    -3.0120 hc         1 G39       0.034200
     38 H823        -3.7790    -0.9170    -2.7620 hc         1 G39       0.034200
     39 H911         0.5600    -4.0550     0.4580 hc         1 G39       0.034200
     40 H912         0.2650    -2.9080     1.7860 hc         1 G39       0.034200
     41 H913        -0.2850    -4.5890     1.9260 hc         1 G39       0.034200
     42 HN41         1.4140     4.1670    -0.4760 hn         1 G39       0.382500
     43 HN42        -0.0830     3.8820     0.0640 hn         1 G39       0.382500
@<TRIPOS>BOND
     1     1     2 1   
     2     1     3 1   
     3     1     4 1   
     4     4     5 1   
     5     4    13 2   
     6     5     6 1   
     7     5    21 1   
     8     5    22 1   
     9     6     7 1   
    10     6    20 1   
    11     6    23 1   
    12     7     8 1   
    13     7    12 1   
    14     7    24 1   
    15     8     9 1   
    16     8    25 1   
    17     9    10 2   
    18     9    11 1   
    19    11    26 1   
    20    11    27 1   
    21    11    28 1   
    22    12    13 1   
    23    12    14 1   
    24    12    29 1   
    25    13    30 1   
    26    14    15 1   
    27    15    16 1   
    28    15    17 1   
    29    15    31 1   
    30    16    19 1   
    31    16    32 1   
    32    16    33 1   
    33    17    18 1   
    34    17    34 1   
    35    17    35 1   
    36    18    36 1   
    37    18    37 1   
    38    18    38 1   
    39    19    39 1   
    40    19    40 1   
    41    19    41 1   
    42    20    42 1   
    43    20    43 1   
@<TRIPOS>SUBSTRUCTURE
     1 G39         1 TEMP              0 ****  ****    0 ROOT
