@<TRIPOS>MOLECULE
G39
   43    43     1     0     0
SMALL
abcg2


@<TRIPOS>ATOM
      1 C1           3.7390    -0.5930    -0.0740 c          1 G39       0.709200
      2 O1A          3.8360    -1.7840    -0.4290 o          1 G39      -0.722000
      3 O1B          4.6630     0.1340     0.3430 o          1 G39      -0.722000
      4 C2           2.3620     0.0560    -0.1370 ce         1 G39      -0.145400
      5 C3           2.2560     1.5180     0.1790 c6         1 G39      -0.035200
      6 C4           0.9300     2.1270    -0.2550 c6         1 G39       0.149500
      7 C5          -0.2180     1.2280     0.2000 c6         1 G39       0.108700
      8 N5          -1.4990     1.8350    -0.0770 ns         1 G39      -0.495900
      9 C10         -2.5110     1.9420     0.8020 c          1 G39       0.608100
     10 O10         -2.4230     1.6270     1.9800 o          1 G39      -0.599100
     11 C11         -3.7950     2.4920     0.2290 c3         1 G39      -0.183100
     12 C6          -0.1180    -0.1380    -0.4760 c6         1 G39       0.202500
     13 C7           1.2840    -0.6710    -0.4280 c2         1 G39      -0.300200
     14 O7          -1.0320    -0.9910     0.1800 os         1 G39      -0.459000
     15 C8          -1.4210    -2.1780    -0.4950 c3         1 G39       0.179300
     16 C9          -1.3970    -3.3250     0.5100 c3         1 G39      -0.084900
     17 C81         -2.8080    -2.0260    -1.1150 c3         1 G39      -0.084900
     18 C82         -2.9140    -0.9700    -2.2060 c3         1 G39      -0.086600
     19 C91         -0.0180    -3.6260     1.0770 c3         1 G39      -0.086600
     20 N4           0.7910     3.4460     0.3400 n8         1 G39      -0.990200
     21 H31          2.3760     1.6740     1.2580 hc         1 G39       0.065700
     22 H32          3.0780     2.0630    -0.2910 hc         1 G39       0.065700
     23 H4           0.9150     2.1560    -1.3580 h1         1 G39       0.003700
     24 H5          -0.1410     1.0930     1.2820 h1         1 G39       0.114700
     25 HN5         -1.6830     2.0910    -1.0350 hn         1 G39       0.288500
     26 H111        -3.6980     2.8580    -0.7920 hc         1 G39       0.048700
     27 H112        -4.5550     1.7110     0.2390 hc         1 G39       0.048700
     28 H113        -4.1570     3.3060     0.8550 hc         1 G39       0.048700
     29 H6          -0.4100    -0.0150    -1.5320 h1         1 G39       0.010700
     30 H7           1.4180    -1.7240    -0.6530 ha         1 G39       0.198000
     31 H8          -0.7050    -2.4110    -1.2990 h1         1 G39       0.042700
     32 H91         -2.0970    -3.0970     1.3210 hc         1 G39       0.033200
     33 H92         -1.7870    -4.2170     0.0150 hc         1 G39       0.033200
     34 H811        -3.0900    -2.9970    -1.5320 hc         1 G39       0.033200
     35 H812        -3.5300    -1.8140    -0.3200 hc         1 G39       0.033200
     36 H821        -2.7550     0.0350    -1.8150 hc         1 G39       0.034200
     37 H822        -2.1830    -1.1430    -2.9990 hc         1 G39       0.034200
     38 H823        -3.9030    -0.9840    -2.6640 hc         1 G39       0.034200
     39 H911         0.6830    -3.8930     0.2830 hc         1 G39       0.034200
     40 H912         0.3970    -2.7690     1.6070 hc         1 G39       0.034200
     41 H913        -0.0580    -4.4630     1.7750 hc         1 G39       0.034200
     42 HN41         1.5700     4.0220     0.0430 hn         1 G39       0.382500
     43 HN42        -0.0370     3.9040    -0.0200 hn         1 G39       0.382500
@<TRIPOS>BOND
     1     1     2 1   
     2     1     3 1   
     3     1     4 1   
     4     4     5 1   
     5     4    13 2   
     6     5     6 1   
     7     5    21 1   
     8     5    22 1   
     9     6     7 1   
    10     6    20 1   
    11     6    23 1   
    12     7     8 1   
    13     7    12 1   
    14     7    24 1   
    15     8     9 1   
    16     8    25 1   
    17     9    10 2   
    18     9    11 1   
    19    11    26 1   
    20    11    27 1   
    21    11    28 1   
    22    12    13 1   
    23    12    14 1   
    24    12    29 1   
    25    13    30 1   
    26    14    15 1   
    27    15    16 1   
    28    15    17 1   
    29    15    31 1   
    30    16    19 1   
    31    16    32 1   
    32    16    33 1   
    33    17    18 1   
    34    17    34 1   
    35    17    35 1   
    36    18    36 1   
    37    18    37 1   
    38    18    38 1   
    39    19    39 1   
    40    19    40 1   
    41    19    41 1   
    42    20    42 1   
    43    20    43 1   
@<TRIPOS>SUBSTRUCTURE
     1 G39         1 TEMP              0 ****  ****    0 ROOT
