@<TRIPOS>MOLECULE
G3A
   74    79     1     0     0
SMALL
bcc


@<TRIPOS>ATOM
      1 O36         36.0780   -42.4930     1.6750 o          1 G3A      -0.630500
      2 C36         35.9360   -41.3500     1.2740 c          1 G3A       0.660000
      3 N31         36.1520   -41.0360    -0.0750 ns         1 G3A      -0.520400
      4 C32         36.0230   -39.8020    -0.6470 cc         1 G3A       0.684800
      5 N32         36.3410   -39.6900    -1.9480 nv         1 G3A      -0.930800
      6 N33         35.6570   -38.7410     0.0280 nd         1 G3A      -0.672100
      7 C35         35.5540   -40.1880     2.0040 cc         1 G3A       0.161800
      8 C34         35.4480   -38.9880     1.3280 cd         1 G3A       0.085800
      9 N37         35.2560   -40.0110     3.3330 nc         1 G3A      -0.669000
     10 C38         34.9750   -38.7450     3.4500 cd         1 G3A       0.484400
     11 N39         35.0820   -38.0720     2.2640 na         1 G3A      -0.191900
     12 C41         34.7700   -36.6750     1.9920 c5         1 G3A       0.252800
     13 O44         35.0810   -35.9120     3.1190 os         1 G3A      -0.401600
     14 C42         33.2790   -36.4800     1.7040 c5         1 G3A       0.059100
     15 O42         33.1350   -35.4010     0.8180 oh         1 G3A      -0.631800
     16 C43         32.7490   -36.1100     3.0950 c5         1 G3A       0.123100
     17 O43         31.5690   -35.3760     3.0570 oh         1 G3A      -0.683800
     18 C44         33.9110   -35.2820     3.6380 c5         1 G3A       0.114100
     19 C45         33.9880   -35.1350     5.1370 c3         1 G3A       0.222400
     20 O45         34.0150   -36.3940     5.7700 os         1 G3A      -0.583200
     21 PA          34.0140   -36.4680     7.4230 p5         1 G3A       1.489800
     22 O1A         33.4710   -35.1860     7.9660 o          1 G3A      -0.865500
     23 O2A         35.3410   -36.9960     7.8640 o          1 G3A      -0.865500
     24 O1          32.9640   -37.7130     7.6190 os         1 G3A      -0.718800
     25 PB          31.3280   -37.8510     7.6170 p5         1 G3A       1.546800
     26 O2B         30.6670   -36.7220     8.3350 o          1 G3A      -0.873000
     27 O3B         31.0590   -39.2720     7.9990 o          1 G3A      -0.873000
     28 O3A         31.1060   -37.6430     5.9880 os         1 G3A      -0.736800
     29 PG          29.7990   -37.9790     5.0720 p5         1 G3A       1.513800
     30 O1G         29.7420   -36.9260     3.9940 o          1 G3A      -0.856000
     31 O2G         28.6000   -38.2650     5.9120 o          1 G3A      -0.856000
     32 O25         30.2930   -39.3330     4.2910 os         1 G3A      -0.608200
     33 C25         30.2560   -40.5750     4.9640 c3         1 G3A       0.187400
     34 C24         30.9710   -41.6420     4.1780 c5         1 G3A       0.132100
     35 C23         32.4240   -41.3850     3.7910 c5         1 G3A       0.150100
     36 O23         33.2970   -41.4960     4.8670 oh         1 G3A      -0.554800
     37 C22         32.5990   -42.4190     2.6790 c5         1 G3A       0.053100
     38 O22         32.7090   -43.6890     3.2560 oh         1 G3A      -0.561800
     39 O24         30.3250   -41.8720     2.9190 os         1 G3A      -0.402600
     40 C21         31.2580   -42.2460     1.9530 c5         1 G3A       0.226800
     41 N19         31.3760   -41.2000     0.9390 na         1 G3A      -0.257000
     42 C14         32.0900   -41.3360    -0.2150 ca         1 G3A       0.415800
     43 N13         32.6860   -42.4310    -0.6860 nb         1 G3A      -0.732000
     44 C12         33.3060   -42.1950    -1.8290 ca         1 G3A       0.661900
     45 N11         33.3950   -41.0490    -2.4990 nb         1 G3A      -0.879000
     46 C18         30.9830   -39.8920     0.9940 cc         1 G3A       0.471700
     47 N17         31.3800   -39.1920    -0.0320 nd         1 G3A      -0.579100
     48 C15         32.0840   -40.0810    -0.8020 ca         1 G3A      -0.201200
     49 C16         32.7980   -39.9560    -2.0070 ca         1 G3A       0.762200
     50 N16         32.8960   -38.8040    -2.6750 nv         1 G3A      -0.964500
     51 HN31        36.4410   -41.8100    -0.6610 hn         1 G3A       0.301500
     52 H321        36.0780   -38.8270    -2.3960 hn         1 G3A       0.422300
     53 H322        36.3150   -40.5020    -2.5430 hn         1 G3A       0.422300
     54 H38         34.6990   -38.2490     4.3680 h5         1 G3A       0.144100
     55 H41         35.3840   -36.3830     1.1350 h2         1 G3A       0.077700
     56 H42         32.8240   -37.3930     1.3020 h1         1 G3A       0.070700
     57 HO42        32.2850   -34.9900     1.0250 ho         1 G3A       0.434000
     58 H43         32.6390   -37.0280     3.6830 h1         1 G3A       0.101700
     59 HO43        30.8360   -35.9560     3.4020 ho         1 G3A       0.526000
     60 H44         33.8370   -34.2630     3.2360 h1         1 G3A       0.027700
     61 H451        34.8730   -34.5390     5.3910 h1         1 G3A       0.026200
     62 H452        33.1150   -34.5490     5.4400 h1         1 G3A       0.026200
     63 H251        30.7360   -40.5170     5.9450 h1         1 G3A       0.070200
     64 H252        29.2210   -40.8920     5.1320 h1         1 G3A       0.070200
     65 H24         30.9150   -42.5540     4.7870 h1         1 G3A       0.057700
     66 H23         32.4930   -40.3890     3.3310 h1         1 G3A       0.067700
     67 HO23        34.1400   -41.1140     4.5640 ho         1 G3A       0.443000
     68 H22         33.4410   -42.2020     2.0180 h1         1 G3A       0.066700
     69 HO22        32.8630   -44.3310     2.5540 ho         1 G3A       0.381000
     70 H21         30.9390   -43.1570     1.4400 h2         1 G3A       0.065700
     71 H12         33.8120   -43.0400    -2.2820 h5         1 G3A       0.017100
     72 H18         30.4070   -39.5040     1.8200 h5         1 G3A       0.138800
     73 H161        33.4960   -38.7390    -3.4790 hn         1 G3A       0.440800
     74 H162        32.5480   -37.9490    -2.2760 hn         1 G3A       0.440800
@<TRIPOS>BOND
     1     1     2 2   
     2     2     3 1   
     3     2     7 1   
     4     3     4 1   
     5     3    51 1   
     6     4     5 1   
     7     4     6 2   
     8     5    52 1   
     9     5    53 1   
    10     6     8 1   
    11     7     8 2   
    12     7     9 1   
    13     8    11 1   
    14     9    10 2   
    15    10    11 1   
    16    10    54 1   
    17    11    12 1   
    18    12    13 1   
    19    12    14 1   
    20    12    55 1   
    21    13    18 1   
    22    14    15 1   
    23    14    16 1   
    24    14    56 1   
    25    15    57 1   
    26    16    17 1   
    27    16    18 1   
    28    16    58 1   
    29    17    59 1   
    30    18    19 1   
    31    18    60 1   
    32    19    20 1   
    33    19    61 1   
    34    19    62 1   
    35    20    21 1   
    36    21    22 1   
    37    21    23 1   
    38    21    24 1   
    39    24    25 1   
    40    25    26 1   
    41    25    27 1   
    42    25    28 1   
    43    28    29 1   
    44    29    30 1   
    45    29    31 1   
    46    29    32 1   
    47    32    33 1   
    48    33    34 1   
    49    33    63 1   
    50    33    64 1   
    51    34    35 1   
    52    34    39 1   
    53    34    65 1   
    54    35    36 1   
    55    35    37 1   
    56    35    66 1   
    57    36    67 1   
    58    37    38 1   
    59    37    40 1   
    60    37    68 1   
    61    38    69 1   
    62    39    40 1   
    63    40    41 1   
    64    40    70 1   
    65    41    42 1   
    66    41    46 1   
    67    42    43 ar  
    68    42    48 ar  
    69    43    44 ar  
    70    44    45 ar  
    71    44    71 1   
    72    45    49 ar  
    73    46    47 2   
    74    46    72 1   
    75    47    48 1   
    76    48    49 ar  
    77    49    50 1   
    78    50    73 1   
    79    50    74 1   
@<TRIPOS>SUBSTRUCTURE
     1 G3A         1 TEMP              0 ****  ****    0 ROOT
