@<TRIPOS>MOLECULE
G3A
   74    79     1     0     0
SMALL
No Charge or Current Charge


@<TRIPOS>ATOM
      1 O36         36.4840   -42.7240     2.3460 o          1 G3A      -0.555000
      2 C36         36.2950   -41.6720     1.7510 c          1 G3A       0.517500
      3 N31         36.4790   -41.5590     0.4080 ns         1 G3A      -0.453400
      4 C32         36.2860   -40.4090    -0.2800 cc         1 G3A       0.684800
      5 N32         36.5460   -40.4650    -1.5750 nv         1 G3A      -1.041200
      6 N33         35.8950   -39.2490     0.1990 nd         1 G3A      -0.672100
      7 C35         35.8540   -40.3900     2.3560 cc         1 G3A       0.096500
      8 C34         35.6790   -39.2790     1.5760 cd         1 G3A       0.100400
      9 N37         35.5730   -40.1070     3.6740 nc         1 G3A      -0.669000
     10 C38         35.2600   -38.8040     3.6950 cd         1 G3A       0.484400
     11 N39         35.2770   -38.2630     2.4100 na         1 G3A      -0.170500
     12 C41         34.9100   -36.9040     2.0160 c5         1 G3A       0.305300
     13 O44         34.9910   -36.0360     3.1780 os         1 G3A      -0.448000
     14 C42         33.4440   -36.7700     1.4650 c5         1 G3A       0.082300
     15 O42         33.2210   -35.6620     0.5760 oh         1 G3A      -0.754000
     16 C43         32.6880   -36.4980     2.7910 c5         1 G3A       0.146300
     17 O43         31.3860   -35.9380     2.5340 oh         1 G3A      -0.806000
     18 C44         33.6730   -35.4890     3.4540 c5         1 G3A       0.137300
     19 C45         33.4450   -35.2520     4.9720 c3         1 G3A       0.245600
     20 O45         33.8210   -36.4280     5.7020 os         1 G3A      -0.606400
     21 PA          33.9690   -36.3540     7.3040 p5         1 G3A       1.489800
     22 O1A         33.7600   -34.9870     7.8670 o          1 G3A      -0.865500
     23 O2A         35.3260   -36.8490     7.6840 o          1 G3A      -0.865500
     24 O1          32.8930   -37.3930     7.7940 os         1 G3A      -0.718800
     25 PB          31.3910   -37.2600     7.3480 p5         1 G3A       1.546800
     26 O2B         30.9710   -35.8610     7.0510 o          1 G3A      -0.873000
     27 O3B         30.5680   -37.8560     8.4420 o          1 G3A      -0.873000
     28 O3A         31.4900   -38.2080     6.1000 os         1 G3A      -0.736800
     29 PG          30.1630   -38.1980     5.2650 p5         1 G3A       1.513800
     30 O1G         30.0700   -37.0230     4.3500 o          1 G3A      -0.856000
     31 O2G         28.9040   -38.4660     6.0160 o          1 G3A      -0.856000
     32 O25         30.5390   -39.4820     4.3760 os         1 G3A      -0.631400
     33 C25         30.4890   -40.7790     4.9990 c3         1 G3A       0.210600
     34 C24         31.1360   -41.8320     4.0620 c5         1 G3A       0.155300
     35 C23         32.5940   -41.5200     3.6050 c5         1 G3A       0.173300
     36 O23         33.5990   -41.8240     4.5860 oh         1 G3A      -0.677000
     37 C22         32.6870   -42.4660     2.3750 c5         1 G3A       0.076300
     38 O22         32.8460   -43.8430     2.7700 oh         1 G3A      -0.684000
     39 O24         30.3740   -41.9790     2.8320 os         1 G3A      -0.449000
     40 C21         31.2940   -42.1630     1.7270 c5         1 G3A       0.279300
     41 N19         31.2560   -40.9820     0.8630 na         1 G3A      -0.286300
     42 C14         31.9260   -40.8190    -0.3160 ca         1 G3A       0.087500
     43 N13         32.7620   -41.6270    -0.9990 nb         1 G3A      -0.206000
     44 C12         33.2440   -41.1240    -2.1610 ca         1 G3A       0.135900
     45 N11         32.9750   -39.9060    -2.6930 nb         1 G3A      -0.353000
     46 C18         30.5150   -39.8140     1.0910 cc         1 G3A       0.471700
     47 N17         30.6940   -38.9210     0.0950 nd         1 G3A      -0.579100
     48 C15         31.5820   -39.5710    -0.7680 ca         1 G3A      -0.070600
     49 C16         32.1380   -39.1290    -1.9890 ca         1 G3A       0.433900
     50 N16         31.8710   -37.9110    -2.5270 nv         1 G3A      -1.074900
     51 HN31        36.8040   -42.3780    -0.0780 hn         1 G3A       0.301500
     52 H321        36.1970   -39.6700    -2.0950 hn         1 G3A       0.477500
     53 H322        36.4620   -41.3620    -2.0320 hn         1 G3A       0.477500
     54 H38         34.9960   -38.2180     4.5670 h5         1 G3A       0.144100
     55 H41         35.6420   -36.6010     1.2570 h2         1 G3A       0.077700
     56 H42         33.1110   -37.7080     0.9990 h1         1 G3A       0.070700
     57 HO42        32.3500   -35.3190     0.9090 ho         1 G3A       0.533000
     58 H43         32.6140   -37.4180     3.3920 h1         1 G3A       0.101700
     59 HO43        30.7800   -36.3340     3.2680 ho         1 G3A       0.625000
     60 H44         33.6070   -34.5130     2.9540 h1         1 G3A       0.027700
     61 H451        34.0570   -34.3940     5.2780 h1         1 G3A       0.026200
     62 H452        32.3920   -34.9940     5.1360 h1         1 G3A       0.026200
     63 H251        31.0360   -40.7820     5.9520 h1         1 G3A       0.070200
     64 H252        29.4520   -41.0770     5.2040 h1         1 G3A       0.070200
     65 H24         31.1080   -42.7990     4.5840 h1         1 G3A       0.057700
     66 H23         32.6750   -40.4690     3.2890 h1         1 G3A       0.067700
     67 HO23        34.4030   -41.2850     4.3370 ho         1 G3A       0.542000
     68 H22         33.5060   -42.1670     1.7070 h1         1 G3A       0.066700
     69 HO22        33.3850   -43.8150     3.5950 ho         1 G3A       0.480000
     70 H21         30.9670   -42.9990     1.0970 h2         1 G3A       0.065700
     71 H12         33.9180   -41.7650    -2.7260 h5         1 G3A       0.017100
     72 H18         29.8760   -39.6830     1.9580 h5         1 G3A       0.138800
     73 H161        32.5220   -37.5570    -3.2210 hn         1 G3A       0.496000
     74 H162        31.4620   -37.2220    -1.9020 hn         1 G3A       0.496000
@<TRIPOS>BOND
     1     1     2 2   
     2     2     3 1   
     3     2     7 1   
     4     3     4 1   
     5     3    51 1   
     6     4     5 1   
     7     4     6 2   
     8     5    52 1   
     9     5    53 1   
    10     6     8 1   
    11     7     8 2   
    12     7     9 1   
    13     8    11 1   
    14     9    10 2   
    15    10    11 1   
    16    10    54 1   
    17    11    12 1   
    18    12    13 1   
    19    12    14 1   
    20    12    55 1   
    21    13    18 1   
    22    14    15 1   
    23    14    16 1   
    24    14    56 1   
    25    15    57 1   
    26    16    17 1   
    27    16    18 1   
    28    16    58 1   
    29    17    59 1   
    30    18    19 1   
    31    18    60 1   
    32    19    20 1   
    33    19    61 1   
    34    19    62 1   
    35    20    21 1   
    36    21    22 1   
    37    21    23 1   
    38    21    24 1   
    39    24    25 1   
    40    25    26 1   
    41    25    27 1   
    42    25    28 1   
    43    28    29 1   
    44    29    30 1   
    45    29    31 1   
    46    29    32 1   
    47    32    33 1   
    48    33    34 1   
    49    33    63 1   
    50    33    64 1   
    51    34    35 1   
    52    34    39 1   
    53    34    65 1   
    54    35    36 1   
    55    35    37 1   
    56    35    66 1   
    57    36    67 1   
    58    37    38 1   
    59    37    40 1   
    60    37    68 1   
    61    38    69 1   
    62    39    40 1   
    63    40    41 1   
    64    40    70 1   
    65    41    42 1   
    66    41    46 1   
    67    42    43 ar  
    68    42    48 ar  
    69    43    44 ar  
    70    44    45 ar  
    71    44    71 1   
    72    45    49 ar  
    73    46    47 2   
    74    46    72 1   
    75    47    48 1   
    76    48    49 ar  
    77    49    50 1   
    78    50    73 1   
    79    50    74 1   
@<TRIPOS>SUBSTRUCTURE
     1 G3A         1 TEMP              0 ****  ****    0 ROOT
