@<TRIPOS>MOLECULE
G3B
   38    41     1     0     0
SMALL
No Charge or Current Charge


@<TRIPOS>ATOM
      1 O21          5.7830     1.9000    -1.3970 o          1 G3B      -0.511000
      2 S24          5.6370     1.2920    -0.0120 sx         1 G3B       0.235200
      3 C18          5.0680     2.6320     1.1370 c3         1 G3B      -0.061800
      4 C14          4.0930     0.3060     0.0080 ca         1 G3B      -0.069500
      5 C5           2.9740     0.7190    -0.7360 ca         1 G3B      -0.044500
      6 C6           4.0290    -0.8690     0.7760 ca         1 G3B      -0.044500
      7 C3           2.8460    -1.6280     0.8020 ca         1 G3B      -0.114000
      8 C10          1.7160    -1.2180     0.0650 ca         1 G3B       0.010200
      9 C2           1.7920    -0.0410    -0.7070 ca         1 G3B      -0.114000
     10 C12          0.4870    -2.0090     0.0930 cc         1 G3B      -0.081400
     11 C9          -0.9070    -1.6120     0.0360 ca         1 G3B      -0.112800
     12 C13         -1.6480    -2.7690     0.0040 ca         1 G3B       0.075100
     13 O22         -0.8160    -3.8480     0.0400 os         1 G3B      -0.162200
     14 C8           0.4820    -3.3970     0.0930 cd         1 G3B      -0.050900
     15 C4          -3.0440    -2.7620    -0.0410 ca         1 G3B      -0.110000
     16 C7          -1.5220    -0.3520     0.0480 ca         1 G3B      -0.007000
     17 C11         -2.9400    -0.2960    -0.0010 ca         1 G3B      -0.163500
     18 C1          -3.6910    -1.5070    -0.0480 ca         1 G3B      -0.060000
     19 C15         -3.6200     1.0050     0.0040 cc         1 G3B       0.483500
     20 O23         -4.9760     1.0520    -0.0420 os         1 G3B      -0.287000
     21 C16         -5.2040     2.3880    -0.0200 cc         1 G3B       0.422300
     22 C17         -6.6130     2.8920    -0.0590 c3         1 G3B      -0.121400
     23 N20         -4.0960     3.1080     0.0340 nd         1 G3B      -0.357000
     24 N19         -3.0620     2.2060     0.0510 nd         1 G3B      -0.362000
     25 H18          4.1520     3.0770     0.7310 h1         1 G3B       0.079033
     26 H18A         4.8730     2.1870     2.1200 h1         1 G3B       0.079033
     27 H18B         5.8590     3.3870     1.2090 h1         1 G3B       0.079033
     28 H5           3.0200     1.6240    -1.3380 ha         1 G3B       0.129500
     29 H6           4.8930    -1.1920     1.3530 ha         1 G3B       0.129500
     30 H3           2.8070    -2.5310     1.4060 ha         1 G3B       0.118500
     31 H2           0.9400     0.2780    -1.3020 ha         1 G3B       0.118500
     32 H8           1.2850    -4.1280     0.0970 h4         1 G3B       0.245000
     33 H4          -3.6080    -3.6900    -0.0660 ha         1 G3B       0.138000
     34 H7          -0.9240     0.5540     0.1030 ha         1 G3B       0.149000
     35 H1          -4.7780    -1.4810    -0.0830 ha         1 G3B       0.131000
     36 H17         -7.1790     2.5180     0.8020 hc         1 G3B       0.069700
     37 H17A        -6.6400     3.9870    -0.0360 hc         1 G3B       0.069700
     38 H17B        -7.1170     2.5570    -0.9720 hc         1 G3B       0.069700
@<TRIPOS>BOND
     1     1     2 2   
     2     2     3 1   
     3     2     4 1   
     4     3    25 1   
     5     3    26 1   
     6     3    27 1   
     7     4     5 ar  
     8     4     6 ar  
     9     5     9 ar  
    10     5    28 1   
    11     6     7 ar  
    12     6    29 1   
    13     7     8 ar  
    14     7    30 1   
    15     8     9 ar  
    16     8    10 1   
    17     9    31 1   
    18    10    11 1   
    19    10    14 2   
    20    11    12 ar  
    21    11    16 ar  
    22    12    13 1   
    23    12    15 ar  
    24    13    14 1   
    25    14    32 1   
    26    15    18 ar  
    27    15    33 1   
    28    16    17 ar  
    29    16    34 1   
    30    17    18 ar  
    31    17    19 1   
    32    18    35 1   
    33    19    20 1   
    34    19    24 2   
    35    20    21 1   
    36    21    22 1   
    37    21    23 2   
    38    22    36 1   
    39    22    37 1   
    40    22    38 1   
    41    23    24 1   
@<TRIPOS>SUBSTRUCTURE
     1 G3B         1 TEMP              0 ****  ****    0 ROOT
