@<TRIPOS>MOLECULE
G3B
   38    41     1     0     0
SMALL
abcg2


@<TRIPOS>ATOM
      1 O21          5.3900     2.2930    -1.3520 o          1 G3B      -0.511000
      2 S24          5.5310     1.3490    -0.1850 sx         1 G3B       0.235200
      3 C18          5.2620     2.3420     1.3000 c3         1 G3B      -0.061800
      4 C14          4.0210     0.3900    -0.0890 ca         1 G3B      -0.069500
      5 C5           2.9250     0.7550    -0.8540 ca         1 G3B      -0.044500
      6 C6           3.9860    -0.7420     0.7130 ca         1 G3B      -0.044500
      7 C3           2.8260    -1.4950     0.7760 ca         1 G3B      -0.114000
      8 C10          1.7060    -1.1440     0.0190 ca         1 G3B       0.010200
      9 C2           1.7720    -0.0120    -0.7940 ca         1 G3B      -0.114000
     10 C12          0.4960    -1.9640     0.0620 cc         1 G3B      -0.081400
     11 C9          -0.8820    -1.5330     0.0260 ca         1 G3B      -0.112800
     12 C13         -1.6410    -2.7040     0.0900 ca         1 G3B       0.075100
     13 O22         -0.8310    -3.7790     0.1590 os         1 G3B      -0.162200
     14 C8           0.4410    -3.3130     0.1420 cd         1 G3B      -0.050900
     15 C4          -3.0230    -2.7200     0.0960 ca         1 G3B      -0.110000
     16 C7          -1.5330    -0.3060    -0.0170 ca         1 G3B      -0.007000
     17 C11         -2.9240    -0.2950    -0.0110 ca         1 G3B      -0.163500
     18 C1          -3.6580    -1.4940     0.0400 ca         1 G3B      -0.060000
     19 C15         -3.6080     0.9870    -0.0560 cc         1 G3B       0.483500
     20 O23         -4.9490     1.0360    -0.0510 os         1 G3B      -0.287000
     21 C16         -5.2230     2.3530    -0.0970 cc         1 G3B       0.422300
     22 C17         -6.6280     2.8010    -0.1040 c3         1 G3B      -0.121400
     23 N20         -4.1440     3.0500    -0.1280 nd         1 G3B      -0.357000
     24 N19         -3.0970     2.1680    -0.1030 nd         1 G3B      -0.362000
     25 H18          4.3290     2.8960     1.2010 h1         1 G3B       0.079033
     26 H18A         5.2300     1.6950     2.1740 h1         1 G3B       0.079033
     27 H18B         6.1020     3.0300     1.3880 h1         1 G3B       0.079033
     28 H5           2.9680     1.6230    -1.4990 ha         1 G3B       0.129500
     29 H6           4.8500    -1.0370     1.2960 ha         1 G3B       0.129500
     30 H3           2.7900    -2.3600     1.4250 ha         1 G3B       0.118500
     31 H2           0.9270     0.2640    -1.4130 ha         1 G3B       0.118500
     32 H8           1.2190    -4.0590     0.1740 h4         1 G3B       0.245000
     33 H4          -3.5870    -3.6420     0.1460 ha         1 G3B       0.138000
     34 H7          -0.9800     0.6230    -0.0460 ha         1 G3B       0.149000
     35 H1          -4.7390    -1.4710     0.0420 ha         1 G3B       0.131000
     36 H17         -7.1500     2.4610     0.7910 hc         1 G3B       0.069700
     37 H17A        -6.6620     3.8860    -0.1370 hc         1 G3B       0.069700
     38 H17B        -7.1580     2.4080    -0.9720 hc         1 G3B       0.069700
@<TRIPOS>BOND
     1     1     2 2   
     2     2     3 1   
     3     2     4 1   
     4     3    25 1   
     5     3    26 1   
     6     3    27 1   
     7     4     5 ar  
     8     4     6 ar  
     9     5     9 ar  
    10     5    28 1   
    11     6     7 ar  
    12     6    29 1   
    13     7     8 ar  
    14     7    30 1   
    15     8     9 ar  
    16     8    10 1   
    17     9    31 1   
    18    10    11 1   
    19    10    14 2   
    20    11    12 ar  
    21    11    16 ar  
    22    12    13 1   
    23    12    15 ar  
    24    13    14 1   
    25    14    32 1   
    26    15    18 ar  
    27    15    33 1   
    28    16    17 ar  
    29    16    34 1   
    30    17    18 ar  
    31    17    19 1   
    32    18    35 1   
    33    19    20 1   
    34    19    24 2   
    35    20    21 1   
    36    21    22 1   
    37    21    23 2   
    38    22    36 1   
    39    22    37 1   
    40    22    38 1   
    41    23    24 1   
@<TRIPOS>SUBSTRUCTURE
     1 G3B         1 TEMP              0 ****  ****    0 ROOT
