@<TRIPOS>MOLECULE
G3C
   37    39     1     0     0
SMALL
No Charge or Current Charge


@<TRIPOS>ATOM
      1 C10        102.6620   109.8220   142.7930 ca         1 G3C      -0.177000
      2 C13        102.9770   112.2290   142.7710 ca         1 G3C      -0.177000
      3 C15        103.1750   112.0510   138.4190 c3         1 G3C       0.171800
      4 C17        104.0500   111.4090   136.1380 c3         1 G3C       0.167800
      5 C20        107.1300   110.1080   137.5310 ca         1 G3C       0.105000
      6 C02        108.0190   110.2800   138.6130 ca         1 G3C       0.124100
      7 C03        107.5270   110.6250   139.8800 ca         1 G3C       0.047100
      8 C05        106.1520   110.8020   140.0740 ca         1 G3C      -0.151000
      9 C06        105.2350   110.6340   139.0070 ca         1 G3C      -0.062300
     10 C07        103.7190   110.8440   139.2370 c3         1 G3C       0.034900
     11 C08        103.3350   110.9390   140.7240 ca         1 G3C      -0.115300
     12 C09        103.0080   109.7640   141.4320 ca         1 G3C      -0.068500
     13 C11        102.6460   111.0560   143.4610 ca         1 G3C       0.138100
     14 C14        103.3230   112.1760   141.4090 ca         1 G3C      -0.068500
     15 C18        104.7480   110.0950   136.5490 c3         1 G3C      -0.035100
     16 C19        105.7300   110.2780   137.7200 ca         1 G3C      -0.058300
     17 N16        102.8920   111.7210   137.0010 n7         1 G3C      -0.875400
     18 O04        108.3970   110.7930   140.9270 oh         1 G3C      -0.557100
     19 O12        102.3130   111.1200   144.7810 oh         1 G3C      -0.533100
     20 Cl2        107.8160   109.6910   135.9470 cl         1 G3C      -0.185000
     21 H1         102.4110   108.9050   143.3210 ha         1 G3C       0.122000
     22 H2         102.9710   113.1840   143.2910 ha         1 G3C       0.122000
     23 H3         103.8780   112.8930   138.4940 h1         1 G3C       0.035200
     24 H4         102.2340   112.3760   138.8840 h1         1 G3C       0.035200
     25 H5         104.7800   112.2300   136.1380 h1         1 G3C       0.034200
     26 H6         103.6970   111.2900   135.1040 h1         1 G3C       0.034200
     27 H7         105.8050   111.0760   141.0660 ha         1 G3C       0.125000
     28 H8         103.1940   109.9600   138.8550 hc         1 G3C       0.078700
     29 H9         103.0220   108.8000   140.9260 ha         1 G3C       0.116000
     30 H10        103.5910   113.0970   140.8970 ha         1 G3C       0.116000
     31 H11        103.9930   109.3390   136.7920 hc         1 G3C       0.064200
     32 H12        105.2390   109.7000   135.6560 hc         1 G3C       0.064200
     33 H13        102.4120   112.5320   136.5880 hn         1 G3C       0.417000
     34 H15        109.7600   110.2960   139.3500 ho         1 G3C       0.483000
     35 H16        107.8860   111.0290   141.7340 ho         1 G3C       0.478000
     36 H17        102.1130   110.2120   145.0950 ho         1 G3C       0.465000
     37 O01        109.3710   110.1220   138.4630 oh         1 G3C      -0.516100
@<TRIPOS>BOND
     1     1    12 ar  
     2     1    13 ar  
     3     1    21 1   
     4     2    13 ar  
     5     2    14 ar  
     6     2    22 1   
     7     3    10 1   
     8     3    17 1   
     9     3    23 1   
    10     3    24 1   
    11     4    15 1   
    12     4    17 1   
    13     4    25 1   
    14     4    26 1   
    15     5     6 ar  
    16     5    16 ar  
    17     5    20 1   
    18     6     7 ar  
    19     6    37 1   
    20     7     8 ar  
    21     7    18 1   
    22     8     9 ar  
    23     8    27 1   
    24     9    10 1   
    25     9    16 ar  
    26    10    11 1   
    27    10    28 1   
    28    11    12 ar  
    29    11    14 ar  
    30    12    29 1   
    31    13    19 1   
    32    14    30 1   
    33    15    16 1   
    34    15    31 1   
    35    15    32 1   
    36    17    33 1   
    37    18    35 1   
    38    19    36 1   
    39    34    37 1   
@<TRIPOS>SUBSTRUCTURE
     1 G3C         1 TEMP              0 ****  ****    0 ROOT
