@<TRIPOS>MOLECULE
G3C
   37    39     1     0     0
SMALL
abcg2


@<TRIPOS>ATOM
      1 C10        102.6150   109.8420   142.7360 ca         1 G3C      -0.177000
      2 C13        103.0580   112.2020   142.7260 ca         1 G3C      -0.177000
      3 C15        103.1860   112.0090   138.4190 c3         1 G3C       0.171800
      4 C17        104.0280   111.4070   136.1980 c3         1 G3C       0.167800
      5 C20        107.0990   110.1720   137.5980 ca         1 G3C       0.105000
      6 C02        107.9960   110.3290   138.6480 ca         1 G3C       0.124100
      7 C03        107.4830   110.6340   139.9080 ca         1 G3C       0.047100
      8 C05        106.1180   110.7730   140.0810 ca         1 G3C      -0.151000
      9 C06        105.2270   110.6210   139.0230 ca         1 G3C      -0.062300
     10 C07        103.7310   110.8140   139.2310 c3         1 G3C       0.034900
     11 C08        103.3510   110.9180   140.6890 ca         1 G3C      -0.115300
     12 C09        102.9570   109.7850   141.3920 ca         1 G3C      -0.068500
     13 C11        102.6630   111.0560   143.4140 ca         1 G3C       0.138100
     14 C14        103.3960   112.1250   141.3850 ca         1 G3C      -0.068500
     15 C18        104.7750   110.1320   136.5880 c3         1 G3C      -0.035100
     16 C19        105.7160   110.3030   137.7490 ca         1 G3C      -0.058300
     17 N16        102.8820   111.6600   137.0470 n7         1 G3C      -0.875400
     18 O04        108.3930   110.7730   140.8980 oh         1 G3C      -0.557100
     19 O12        102.3430   111.1820   144.7180 oh         1 G3C      -0.533100
     20 CL2        107.8080   109.7970   136.0570 cl         1 G3C      -0.185000
     21 H1         102.3060   108.9390   143.2510 ha         1 G3C       0.122000
     22 H2         103.0990   113.1520   143.2450 ha         1 G3C       0.122000
     23 H3         103.8870   112.8550   138.5050 h1         1 G3C       0.035200
     24 H4         102.2480   112.3310   138.8760 h1         1 G3C       0.035200
     25 H5         104.7430   112.2450   136.1720 h1         1 G3C       0.034200
     26 H6         103.6530   111.2860   135.1800 h1         1 G3C       0.034200
     27 H7         105.7480   111.0050   141.0720 ha         1 G3C       0.125000
     28 H8         103.2230   109.9260   138.8390 hc         1 G3C       0.078700
     29 H9         102.9110   108.8300   140.8810 ha         1 G3C       0.116000
     30 H10        103.7060   113.0320   140.8810 ha         1 G3C       0.116000
     31 H11        104.0370   109.3550   136.8150 hc         1 G3C       0.064200
     32 H12        105.3200   109.7760   135.7160 hc         1 G3C       0.064200
     33 H13        102.3350   112.4070   136.6420 hn         1 G3C       0.417000
     34 H15        109.8080   110.3140   139.2420 ho         1 G3C       0.483000
     35 H16        107.9640   110.9780   141.7370 ho         1 G3C       0.478000
     36 H17        102.0830   110.3290   145.0840 ho         1 G3C       0.465000
     37 O01        109.3140   110.1850   138.4230 oh         1 G3C      -0.516100
@<TRIPOS>BOND
     1     1    12 ar  
     2     1    13 ar  
     3     1    21 1   
     4     2    13 ar  
     5     2    14 ar  
     6     2    22 1   
     7     3    10 1   
     8     3    17 1   
     9     3    23 1   
    10     3    24 1   
    11     4    15 1   
    12     4    17 1   
    13     4    25 1   
    14     4    26 1   
    15     5     6 ar  
    16     5    16 ar  
    17     5    20 1   
    18     6     7 ar  
    19     6    37 1   
    20     7     8 ar  
    21     7    18 1   
    22     8     9 ar  
    23     8    27 1   
    24     9    10 1   
    25     9    16 ar  
    26    10    11 1   
    27    10    28 1   
    28    11    12 ar  
    29    11    14 ar  
    30    12    29 1   
    31    13    19 1   
    32    14    30 1   
    33    15    16 1   
    34    15    31 1   
    35    15    32 1   
    36    17    33 1   
    37    18    35 1   
    38    19    36 1   
    39    34    37 1   
@<TRIPOS>SUBSTRUCTURE
     1 G3C         1 TEMP              0 ****  ****    0 ROOT
