@<TRIPOS>MOLECULE
G3E
   19    20     1     0     0
SMALL
bcc


@<TRIPOS>ATOM
      1 C4          -1.9320    -1.4230     0.0020 ca         1 G3E      -0.082000
      2 C7           1.7150    -0.7530     0.0310 cc         1 G3E       0.024900
      3 C6          -1.9000     1.3610     0.0150 ca         1 G3E      -0.169000
      4 C9           1.7280     0.7120     0.0390 c          1 G3E       0.667700
      5 C8          -3.1180    -0.7200    -0.0040 ca         1 G3E      -0.151000
      6 N5           0.5100     1.3050     0.0340 ns         1 G3E      -0.421100
      7 C1          -0.7000    -0.7540     0.0150 ca         1 G3E      -0.084800
      8 C2          -0.7010     0.6480     0.0210 ca         1 G3E       0.065600
      9 C3           0.5560    -1.4430     0.0210 cd         1 G3E      -0.118200
     10 C10         -3.0990     0.6780     0.0030 ca         1 G3E      -0.090000
     11 O11          2.9130    -1.3470     0.0360 oh         1 G3E      -0.481100
     12 O12          2.7830     1.3390     0.0510 o          1 G3E      -0.647500
     13 H4          -1.9400    -2.5060    -0.0030 ha         1 G3E       0.138000
     14 H6          -1.8840     2.4440     0.0200 ha         1 G3E       0.137000
     15 H8          -4.0610    -1.2490    -0.0140 ha         1 G3E       0.138000
     16 HN5          0.5020     2.3170     0.0350 hn         1 G3E       0.331500
     17 H3           0.5640    -2.5270     0.0160 ha         1 G3E       0.155000
     18 H10         -4.0280     1.2330    -0.0030 ha         1 G3E       0.136000
     19 HO11         3.5940    -0.6580     0.0450 ho         1 G3E       0.453000
@<TRIPOS>BOND
     1     1     5 ar  
     2     1     7 ar  
     3     1    13 1   
     4     2     4 1   
     5     2     9 2   
     6     2    11 1   
     7     3     8 ar  
     8     3    10 ar  
     9     3    14 1   
    10     4     6 1   
    11     4    12 2   
    12     5    10 ar  
    13     5    15 1   
    14     6     8 1   
    15     6    16 1   
    16     7     8 ar  
    17     7     9 1   
    18     9    17 1   
    19    10    18 1   
    20    11    19 1   
@<TRIPOS>SUBSTRUCTURE
     1 G3E         1 TEMP              0 ****  ****    0 ROOT
