@<TRIPOS>MOLECULE
G3E
   19    20     1     0     0
SMALL
No Charge or Current Charge


@<TRIPOS>ATOM
      1 C4          -1.9480    -1.4410     0.0020 ca         1 G3E      -0.064000
      2 C7           1.7520    -0.7720     0.0320 cc         1 G3E       0.024900
      3 C6          -1.9150     1.3760     0.0150 ca         1 G3E      -0.151000
      4 C9           1.7800     0.7300     0.0390 c          1 G3E       0.525200
      5 C8          -3.1560    -0.7200    -0.0040 ca         1 G3E      -0.133000
      6 N5           0.5350     1.3170     0.0330 ns         1 G3E      -0.354100
      7 C1          -0.7210    -0.7530     0.0140 ca         1 G3E      -0.084800
      8 C2          -0.7090     0.6550     0.0200 ca         1 G3E       0.065600
      9 C3           0.5610    -1.4700     0.0200 cd         1 G3E      -0.168200
     10 C10         -3.1400     0.6860     0.0020 ca         1 G3E      -0.072000
     11 O11          2.9650    -1.3810     0.0380 oh         1 G3E      -0.520100
     12 O12          2.8070     1.3960     0.0500 o          1 G3E      -0.572000
     13 H4          -1.9670    -2.5290    -0.0040 ha         1 G3E       0.120000
     14 H6          -1.9050     2.4630     0.0200 ha         1 G3E       0.119000
     15 H8          -4.1050    -1.2520    -0.0140 ha         1 G3E       0.120000
     16 HN5          0.5210     2.3290     0.0370 hn         1 G3E       0.331500
     17 H3           0.5820    -2.5560     0.0150 ha         1 G3E       0.205000
     18 H10         -4.0770     1.2410    -0.0020 ha         1 G3E       0.118000
     19 HO11         3.6400    -0.6620     0.0470 ho         1 G3E       0.492000
@<TRIPOS>BOND
     1     1     5 ar  
     2     1     7 ar  
     3     1    13 1   
     4     2     4 1   
     5     2     9 2   
     6     2    11 1   
     7     3     8 ar  
     8     3    10 ar  
     9     3    14 1   
    10     4     6 1   
    11     4    12 2   
    12     5    10 ar  
    13     5    15 1   
    14     6     8 1   
    15     6    16 1   
    16     7     8 ar  
    17     7     9 1   
    18     9    17 1   
    19    10    18 1   
    20    11    19 1   
@<TRIPOS>SUBSTRUCTURE
     1 G3E         1 TEMP              0 ****  ****    0 ROOT
