@<TRIPOS>MOLECULE
G3F
   23    23     1     0     0
SMALL
No Charge or Current Charge


@<TRIPOS>ATOM
      1 C1           0.6770    -1.4300     0.3370 c6         1 G3F       0.359300
      2 O1           1.0650    -2.7030    -0.1430 oh         1 G3F      -0.644000
      3 C2           1.6430    -0.3190    -0.1910 c6         1 G3F       0.123300
      4 O2           2.9930    -0.5190     0.2970 oh         1 G3F      -0.705000
      5 C3           1.0740     1.0690     0.2280 c6         1 G3F       0.160300
      6 F3           1.8410     2.0880    -0.3850 f          1 G3F      -0.256000
      7 C4          -0.4100     1.2380    -0.2230 c6         1 G3F       0.111300
      8 O4          -0.9540     2.4910     0.2510 oh         1 G3F      -0.711000
      9 C5          -1.2500     0.0220     0.2840 c6         1 G3F       0.181300
     10 O5          -0.6430    -1.2200    -0.1660 os         1 G3F      -0.466000
     11 C6          -2.7290     0.0610    -0.2280 c3         1 G3F       0.171600
     12 O6          -3.5090    -1.0840     0.1810 oh         1 G3F      -0.711000
     13 H1           0.6580    -1.4330     1.4380 h2         1 G3F       0.032700
     14 HO1          0.2100    -3.1500    -0.3240 ho         1 G3F       0.466000
     15 H2           1.6340    -0.3680    -1.2900 h1         1 G3F       0.068700
     16 HO2          3.1930    -1.4750     0.1500 ho         1 G3F       0.523000
     17 H3           1.1550     1.1940     1.3170 h1         1 G3F       0.078700
     18 H4          -0.4320     1.2200    -1.3230 h1         1 G3F       0.057700
     19 HO4         -0.3610     3.2070    -0.0830 ho         1 G3F       0.521000
     20 H5          -1.2710     0.0270     1.3840 h1         1 G3F       0.061700
     21 H6          -3.1970     0.9820     0.1460 h1         1 G3F       0.036700
     22 H6A         -2.7080     0.1290    -1.3240 h1         1 G3F       0.036700
     23 HO6         -4.3950    -0.9940    -0.2410 ho         1 G3F       0.505000
@<TRIPOS>BOND
     1     1     2 1   
     2     1     3 1   
     3     1    10 1   
     4     1    13 1   
     5     2    14 1   
     6     3     4 1   
     7     3     5 1   
     8     3    15 1   
     9     4    16 1   
    10     5     6 1   
    11     5     7 1   
    12     5    17 1   
    13     7     8 1   
    14     7     9 1   
    15     7    18 1   
    16     8    19 1   
    17     9    10 1   
    18     9    11 1   
    19     9    20 1   
    20    11    12 1   
    21    11    21 1   
    22    11    22 1   
    23    12    23 1   
@<TRIPOS>SUBSTRUCTURE
     1 G3F         1 TEMP              0 ****  ****    0 ROOT
