@<TRIPOS>MOLECULE
G3F
   23    23     1     0     0
SMALL
abcg2


@<TRIPOS>ATOM
      1 C1           0.5860    -1.4350     0.2260 c6         1 G3F       0.359300
      2 O1           1.0210    -2.6440    -0.2730 oh         1 G3F      -0.644000
      3 C2           1.5670    -0.3510    -0.2230 c6         1 G3F       0.123300
      4 O2           2.8370    -0.5370     0.3410 oh         1 G3F      -0.705000
      5 C3           1.0360     0.9880     0.2400 c6         1 G3F       0.160300
      6 F3           1.8370     2.0090    -0.2710 f          1 G3F      -0.256000
      7 C4          -0.4000     1.2200    -0.2040 c6         1 G3F       0.111300
      8 O4          -0.9390     2.3740     0.3890 oh         1 G3F      -0.711000
      9 C5          -1.2580     0.0220     0.2150 c6         1 G3F       0.181300
     10 O5          -0.6910    -1.1630    -0.2970 os         1 G3F      -0.466000
     11 C6          -2.6720     0.1330    -0.3110 c3         1 G3F       0.171600
     12 O6          -3.4230    -0.9490     0.1850 oh         1 G3F      -0.711000
     13 H1           0.5370    -1.4450     1.3290 h2         1 G3F       0.032700
     14 HO1          0.6800    -3.3610     0.2720 ho         1 G3F       0.466000
     15 H2           1.6040    -0.3630    -1.3230 h1         1 G3F       0.068700
     16 HO2          3.2110    -1.3470    -0.0210 ho         1 G3F       0.523000
     17 H3           1.0920     1.0500     1.3340 h1         1 G3F       0.078700
     18 H4          -0.4200     1.2900    -1.3020 h1         1 G3F       0.057700
     19 HO4         -0.5650     3.1490    -0.0420 ho         1 G3F       0.521000
     20 H5          -1.2890    -0.0180     1.3170 h1         1 G3F       0.061700
     21 H6          -3.0860     1.0950     0.0080 h1         1 G3F       0.036700
     22 H6A         -2.6440     0.1420    -1.4100 h1         1 G3F       0.036700
     23 HO6         -4.3370    -0.8240    -0.0870 ho         1 G3F       0.505000
@<TRIPOS>BOND
     1     1     2 1   
     2     1     3 1   
     3     1    10 1   
     4     1    13 1   
     5     2    14 1   
     6     3     4 1   
     7     3     5 1   
     8     3    15 1   
     9     4    16 1   
    10     5     6 1   
    11     5     7 1   
    12     5    17 1   
    13     7     8 1   
    14     7     9 1   
    15     7    18 1   
    16     8    19 1   
    17     9    10 1   
    18     9    11 1   
    19     9    20 1   
    20    11    12 1   
    21    11    21 1   
    22    11    22 1   
    23    12    23 1   
@<TRIPOS>SUBSTRUCTURE
     1 G3F         1 TEMP              0 ****  ****    0 ROOT
