@<TRIPOS>MOLECULE
G3G
   74    78     1     0     0
SMALL
bcc


@<TRIPOS>ATOM
      1 C2           5.8840     1.9680    -1.5050 ca         1 G3G      -0.237250
      2 C6           5.5210     3.3250    -1.5710 ca         1 G3G       0.234100
      3 C5           4.3780     3.7420    -0.8660 ca         1 G3G      -0.237250
      4 C20          3.6320     2.8430    -0.1360 ca         1 G3G       0.018500
      5 C27          4.0030     1.5000    -0.0880 ca         1 G3G      -0.371000
      6 C18          5.1360     1.0700    -0.7750 ca         1 G3G       0.018500
      7 S9           2.9860     0.3440     0.7530 sy         1 G3G       1.317700
      8 O40          3.7920    -0.8160     1.1040 o          1 G3G      -0.608550
      9 O11          2.2730     1.0560     1.8060 o          1 G3G      -0.608550
     10 N32          1.8430    -0.1860    -0.3330 n3         1 G3G      -0.743000
     11 C33          2.3000    -1.1300    -1.3540 c3         1 G3G       0.259600
     12 C34          1.4810    -2.3950    -1.3930 ca         1 G3G      -0.100300
     13 C38          1.2080    -3.0980    -0.2240 ca         1 G3G      -0.112000
     14 C39          0.4470    -4.2560    -0.2610 ca         1 G3G      -0.129500
     15 C37         -0.0420    -4.7330    -1.4720 ca         1 G3G      -0.128000
     16 C36          0.2390    -4.0460    -2.6440 ca         1 G3G      -0.129500
     17 C35          0.9960    -2.8810    -2.6030 ca         1 G3G      -0.112000
     18 C24          0.7990     0.7770    -0.7040 c5         1 G3G       0.187500
     19 C25          1.0280     1.5330    -2.0350 c5         1 G3G       0.118800
     20 N22          0.0580     1.0350    -3.0050 n7         1 G3G      -0.769200
     21 C21         -1.1180     0.7410    -2.2070 c5         1 G3G       0.118800
     22 C23         -0.5750     0.0940    -0.9190 c5         1 G3G       0.187500
     23 N28         -1.4560     0.0060     0.2390 n3         1 G3G      -0.743000
     24 C7          -1.9680    -1.2900     0.6550 c3         1 G3G       0.259600
     25 C12         -1.3040    -1.9190     1.8570 ca         1 G3G      -0.100300
     26 C14         -0.1540    -1.4040     2.4370 ca         1 G3G      -0.112000
     27 C30          0.4520    -2.0590     3.5020 ca         1 G3G      -0.129500
     28 C31         -0.0900    -3.2340     4.0050 ca         1 G3G      -0.128000
     29 C29         -1.2490    -3.7480     3.4350 ca         1 G3G      -0.129500
     30 C13         -1.8490    -3.0930     2.3700 ca         1 G3G      -0.112000
     31 S8          -2.1220     1.3290     0.9700 sy         1 G3G       1.317700
     32 C26         -3.8380     1.3190     0.5860 ca         1 G3G      -0.371000
     33 C17         -4.7470     0.7590     1.4810 ca         1 G3G       0.018500
     34 C1          -6.0930     0.7400     1.1850 ca         1 G3G      -0.237250
     35 C4          -6.5740     1.2880    -0.0160 ca         1 G3G       0.234100
     36 C3          -5.6440     1.8630    -0.9010 ca         1 G3G      -0.237250
     37 C19         -4.2990     1.8770    -0.6040 ca         1 G3G       0.018500
     38 O41         -2.0180     1.1470     2.4100 o          1 G3G      -0.608550
     39 O10         -1.5030     2.4980     0.3580 o          1 G3G      -0.608550
     40 N42         -7.8930     1.2360    -0.3290 nv         1 G3G      -0.845200
     41 N43          6.2790     4.2160    -2.2580 nv         1 G3G      -0.845200
     42 H2           6.7690     1.6250    -2.0270 ha         1 G3G       0.134750
     43 H5           4.0820     4.7830    -0.8910 ha         1 G3G       0.134750
     44 H20          2.7620     3.1980     0.4000 ha         1 G3G       0.151750
     45 H18          5.4510     0.0360    -0.7370 ha         1 G3G       0.151750
     46 H331         2.3070    -0.6570    -2.3390 h1         1 G3G       0.054450
     47 H332         3.3380    -1.4020    -1.1620 h1         1 G3G       0.054450
     48 H38          1.5710    -2.7240     0.7250 ha         1 G3G       0.136750
     49 H39          0.2300    -4.7810     0.6600 ha         1 G3G       0.133750
     50 H37         -0.6410    -5.6340    -1.5000 ha         1 G3G       0.129500
     51 H36         -0.1370    -4.4090    -3.5920 ha         1 G3G       0.133750
     52 H35          1.2050    -2.3460    -3.5220 ha         1 G3G       0.136750
     53 H24          0.7170     1.4880     0.1120 h1         1 G3G       0.092700
     54 H251         0.8370     2.5950    -1.8650 h1         1 G3G       0.067950
     55 H252         2.0470     1.4560    -2.4140 h1         1 G3G       0.067950
     56 HN22         0.4000     0.1800    -3.4300 hn         1 G3G       0.345800
     57 H211        -1.6380     1.6750    -1.9950 h1         1 G3G       0.067950
     58 H212        -1.8060     0.0820    -2.7360 h1         1 G3G       0.067950
     59 H23         -0.3870    -0.9490    -1.1660 h1         1 G3G       0.092700
     60 H71         -3.0490    -1.2350     0.8220 h1         1 G3G       0.054450
     61 H72         -1.8580    -1.9670    -0.1960 h1         1 G3G       0.054450
     62 H14          0.2850    -0.4960     2.0560 ha         1 G3G       0.136750
     63 H30          1.3540    -1.6490     3.9370 ha         1 G3G       0.133750
     64 H31          0.3830    -3.7440     4.8340 ha         1 G3G       0.129500
     65 H29         -1.6860    -4.6610     3.8200 ha         1 G3G       0.133750
     66 H13         -2.7510    -3.5030     1.9290 ha         1 G3G       0.136750
     67 H17         -4.4120     0.3400     2.4210 ha         1 G3G       0.151750
     68 H1          -6.7880     0.3010     1.8910 ha         1 G3G       0.134750
     69 H3          -5.9900     2.3070    -1.8260 ha         1 G3G       0.134750
     70 H19         -3.6200     2.3440    -1.3040 ha         1 G3G       0.151750
     71 H421        -8.5550     1.0500     0.4060 hn         1 G3G       0.418800
     72 H422        -8.2370     1.8320    -1.0620 hn         1 G3G       0.418800
     73 H431         6.9370     3.8660    -2.9340 hn         1 G3G       0.418800
     74 H432         5.8790     5.1090    -2.4900 hn         1 G3G       0.418800
@<TRIPOS>BOND
     1     1     2 ar  
     2     1     6 ar  
     3     1    42 1   
     4     2     3 ar  
     5     2    41 1   
     6     3     4 ar  
     7     3    43 1   
     8     4     5 ar  
     9     4    44 1   
    10     5     6 ar  
    11     5     7 1   
    12     6    45 1   
    13     7     8 2   
    14     7     9 2   
    15     7    10 1   
    16    10    11 1   
    17    10    18 1   
    18    11    12 1   
    19    11    46 1   
    20    11    47 1   
    21    12    13 ar  
    22    12    17 ar  
    23    13    14 ar  
    24    13    48 1   
    25    14    15 ar  
    26    14    49 1   
    27    15    16 ar  
    28    15    50 1   
    29    16    17 ar  
    30    16    51 1   
    31    17    52 1   
    32    18    19 1   
    33    18    22 1   
    34    18    53 1   
    35    19    20 1   
    36    19    54 1   
    37    19    55 1   
    38    20    21 1   
    39    20    56 1   
    40    21    22 1   
    41    21    57 1   
    42    21    58 1   
    43    22    23 1   
    44    22    59 1   
    45    23    24 1   
    46    23    31 1   
    47    24    25 1   
    48    24    60 1   
    49    24    61 1   
    50    25    26 ar  
    51    25    30 ar  
    52    26    27 ar  
    53    26    62 1   
    54    27    28 ar  
    55    27    63 1   
    56    28    29 ar  
    57    28    64 1   
    58    29    30 ar  
    59    29    65 1   
    60    30    66 1   
    61    31    32 1   
    62    31    38 2   
    63    31    39 2   
    64    32    33 ar  
    65    32    37 ar  
    66    33    34 ar  
    67    33    67 1   
    68    34    35 ar  
    69    34    68 1   
    70    35    36 ar  
    71    35    40 1   
    72    36    37 ar  
    73    36    69 1   
    74    37    70 1   
    75    40    71 1   
    76    40    72 1   
    77    41    73 1   
    78    41    74 1   
@<TRIPOS>SUBSTRUCTURE
     1 G3G         1 TEMP              0 ****  ****    0 ROOT
