@<TRIPOS>MOLECULE
G3G
   74    78     1     0     0
SMALL
No Charge or Current Charge


@<TRIPOS>ATOM
      1 C2           6.6210     1.7320    -0.6150 ca         1 G3G      -0.219250
      2 C6           6.6120     2.3450    -1.8720 ca         1 G3G       0.372500
      3 C5           5.4290     2.8910    -2.3800 ca         1 G3G      -0.219250
      4 C20          4.2430     2.8270    -1.6320 ca         1 G3G       0.036500
      5 C27          4.2460     2.2030    -0.3700 ca         1 G3G      -0.371000
      6 C18          5.4410     1.6600     0.1440 ca         1 G3G       0.036500
      7 S9           2.7240     2.1170     0.5920 sy         1 G3G       1.176100
      8 O40          3.0050     1.6510     1.9530 o          1 G3G      -0.537750
      9 O11          2.0260     3.3820     0.3370 o          1 G3G      -0.537750
     10 N32          1.7990     0.8930    -0.1740 n3         1 G3G      -0.743000
     11 C33          2.6110    -0.0850    -0.9630 c3         1 G3G       0.259600
     12 C34          2.1390    -1.5340    -0.9750 ca         1 G3G      -0.100300
     13 C38          2.0470    -2.2450     0.2390 ca         1 G3G      -0.094000
     14 C39          1.6990    -3.6050     0.2400 ca         1 G3G      -0.111500
     15 C37          1.4320    -4.2650    -0.9700 ca         1 G3G      -0.110000
     16 C36          1.5350    -3.5680    -2.1850 ca         1 G3G      -0.111500
     17 C35          1.9040    -2.2120    -2.1900 ca         1 G3G      -0.094000
     18 C24          0.3700     1.2400    -0.5780 c5         1 G3G       0.187500
     19 C25          0.3270     1.5660    -2.1130 c5         1 G3G       0.118800
     20 N22         -0.0390     0.2890    -2.7790 n7         1 G3G      -0.824400
     21 C21         -1.1190    -0.2360    -1.9040 c5         1 G3G       0.118800
     22 C23         -0.6340     0.0170    -0.4290 c5         1 G3G       0.187500
     23 N28         -1.8500     0.3390     0.4330 n3         1 G3G      -0.743000
     24 C7          -2.7940    -0.7880     0.6460 c3         1 G3G       0.259600
     25 C12         -2.1530    -2.1470     0.9130 ca         1 G3G      -0.100300
     26 C14         -1.4740    -2.3780     2.1260 ca         1 G3G      -0.094000
     27 C30         -0.9630    -3.6540     2.4200 ca         1 G3G      -0.111500
     28 C31         -1.1270    -4.7060     1.5030 ca         1 G3G      -0.110000
     29 C29         -1.7900    -4.4780     0.2860 ca         1 G3G      -0.111500
     30 C13         -2.3040    -3.2030    -0.0080 ca         1 G3G      -0.094000
     31 S8          -2.5780     1.8990     0.4790 sy         1 G3G       1.176100
     32 C26         -4.2960     1.6010     0.9380 ca         1 G3G      -0.371000
     33 C17         -4.6800     1.6370     2.2930 ca         1 G3G       0.036500
     34 C1          -6.0200     1.4040     2.6430 ca         1 G3G      -0.219250
     35 C4          -6.9720     1.1420     1.6520 ca         1 G3G       0.372500
     36 C3          -6.5940     1.1110     0.3060 ca         1 G3G      -0.219250
     37 C19         -5.2580     1.3430    -0.0590 ca         1 G3G       0.036500
     38 O41         -1.9290     2.6240     1.5760 o          1 G3G      -0.537750
     39 O10         -2.5910     2.4070    -0.8950 o          1 G3G      -0.537750
     40 N42         -8.2720     0.9180     1.9990 nv         1 G3G      -1.094000
     41 N43          7.7610     2.4100    -2.6050 nv         1 G3G      -1.094000
     42 H2           7.5400     1.3110    -0.2180 ha         1 G3G       0.116750
     43 H5           5.4230     3.3710    -3.3550 ha         1 G3G       0.116750
     44 H20          3.3280     3.2590    -2.0360 ha         1 G3G       0.133750
     45 H18          5.4620     1.1800     1.1220 ha         1 G3G       0.133750
     46 H331         2.7530     0.2710    -1.9920 h1         1 G3G       0.054450
     47 H332         3.6180    -0.1630    -0.5360 h1         1 G3G       0.054450
     48 H38          2.2550    -1.7410     1.1800 ha         1 G3G       0.118750
     49 H39          1.6400    -4.1470     1.1800 ha         1 G3G       0.115750
     50 H37          1.1560    -5.3170    -0.9670 ha         1 G3G       0.111500
     51 H36          1.3460    -4.0840    -3.1240 ha         1 G3G       0.115750
     52 H35          2.0240    -1.7000    -3.1420 ha         1 G3G       0.118750
     53 H24          0.0280     2.1060    -0.0050 h1         1 G3G       0.092700
     54 H251        -0.4420     2.3250    -2.3140 h1         1 G3G       0.067950
     55 H252         1.2760     1.9740    -2.4870 h1         1 G3G       0.067950
     56 HN22         0.7590    -0.3480    -2.6930 hn         1 G3G       0.401000
     57 H211        -2.0590     0.2900    -2.1170 h1         1 G3G       0.067950
     58 H212        -1.3020    -1.3040    -2.0860 h1         1 G3G       0.067950
     59 H23         -0.1100    -0.8610    -0.0410 h1         1 G3G       0.092700
     60 H71         -3.4220    -0.6010     1.5250 h1         1 G3G       0.054450
     61 H72         -3.4680    -0.8780    -0.2160 h1         1 G3G       0.054450
     62 H14         -1.3560    -1.5700     2.8450 ha         1 G3G       0.118750
     63 H30         -0.4450    -3.8280     3.3610 ha         1 G3G       0.115750
     64 H31         -0.7340    -5.6940     1.7320 ha         1 G3G       0.111500
     65 H29         -1.9130    -5.2910    -0.4270 ha         1 G3G       0.115750
     66 H13         -2.8340    -3.0430    -0.9440 ha         1 G3G       0.118750
     67 H17         -3.9490     1.8370     3.0760 ha         1 G3G       0.133750
     68 H1          -6.3130     1.4270     3.6890 ha         1 G3G       0.116750
     69 H3          -7.3320     0.9080    -0.4640 ha         1 G3G       0.116750
     70 H19         -4.9770     1.3150    -1.1120 ha         1 G3G       0.133750
     71 H421        -8.5740     1.1310     2.9480 hn         1 G3G       0.474000
     72 H422        -8.9880     0.9210     1.2760 hn         1 G3G       0.474000
     73 H431         8.5630     1.8510    -2.3200 hn         1 G3G       0.474000
     74 H432         7.7130     2.6810    -3.5850 hn         1 G3G       0.474000
@<TRIPOS>BOND
     1     1     2 ar  
     2     1     6 ar  
     3     1    42 1   
     4     2     3 ar  
     5     2    41 1   
     6     3     4 ar  
     7     3    43 1   
     8     4     5 ar  
     9     4    44 1   
    10     5     6 ar  
    11     5     7 1   
    12     6    45 1   
    13     7     8 2   
    14     7     9 2   
    15     7    10 1   
    16    10    11 1   
    17    10    18 1   
    18    11    12 1   
    19    11    46 1   
    20    11    47 1   
    21    12    13 ar  
    22    12    17 ar  
    23    13    14 ar  
    24    13    48 1   
    25    14    15 ar  
    26    14    49 1   
    27    15    16 ar  
    28    15    50 1   
    29    16    17 ar  
    30    16    51 1   
    31    17    52 1   
    32    18    19 1   
    33    18    22 1   
    34    18    53 1   
    35    19    20 1   
    36    19    54 1   
    37    19    55 1   
    38    20    21 1   
    39    20    56 1   
    40    21    22 1   
    41    21    57 1   
    42    21    58 1   
    43    22    23 1   
    44    22    59 1   
    45    23    24 1   
    46    23    31 1   
    47    24    25 1   
    48    24    60 1   
    49    24    61 1   
    50    25    26 ar  
    51    25    30 ar  
    52    26    27 ar  
    53    26    62 1   
    54    27    28 ar  
    55    27    63 1   
    56    28    29 ar  
    57    28    64 1   
    58    29    30 ar  
    59    29    65 1   
    60    30    66 1   
    61    31    32 1   
    62    31    38 2   
    63    31    39 2   
    64    32    33 ar  
    65    32    37 ar  
    66    33    34 ar  
    67    33    67 1   
    68    34    35 ar  
    69    34    68 1   
    70    35    36 ar  
    71    35    40 1   
    72    36    37 ar  
    73    36    69 1   
    74    37    70 1   
    75    40    71 1   
    76    40    72 1   
    77    41    73 1   
    78    41    74 1   
@<TRIPOS>SUBSTRUCTURE
     1 G3G         1 TEMP              0 ****  ****    0 ROOT
