@<TRIPOS>MOLECULE
G3H
   15    14     1     0     0
SMALL
bcc


@<TRIPOS>ATOM
      1 O1          -4.0650    -0.5090    -0.5500 o          1 G3H      -0.585100
      2 C1          -3.1350    -0.7680     0.1710 c          1 G3H       0.543900
      3 C2          -2.0010     0.1770     0.4660 c3         1 G3H       0.009100
      4 O2          -2.2160     1.4580    -0.0500 oh         1 G3H      -0.579800
      5 C3          -0.6830    -0.4590     0.0210 c3         1 G3H       0.216400
      6 O1P          0.3810     0.2790     0.5230 os         1 G3H      -0.541200
      7 O2P          1.8320     0.3890    -1.5920 o          1 G3H      -0.923833
      8 O3P          2.8000     0.8240     0.7490 o          1 G3H      -0.923833
      9 O4P          2.1080    -1.5560     0.0500 o          1 G3H      -0.923833
     10 P            1.9260    -0.0530    -0.1370 p5         1 G3H       1.271900
     11 H11         -3.0510    -1.7500     0.6710 h4         1 G3H      -0.036800
     12 H2          -1.9690     0.2730     1.5600 h1         1 G3H       0.080700
     13 HO2         -2.2850     1.3960    -1.0090 ho         1 G3H       0.400000
     14 H31         -0.6630    -1.5020     0.3690 h1         1 G3H      -0.003300
     15 H32         -0.6770    -0.5030    -1.0800 h1         1 G3H      -0.003300
@<TRIPOS>BOND
     1     1     2 2   
     2     2     3 1   
     3     2    11 1   
     4     3     4 1   
     5     3     5 1   
     6     3    12 1   
     7     4    13 1   
     8     5     6 1   
     9     5    14 1   
    10     5    15 1   
    11     6    10 1   
    12     7    10 1   
    13     8    10 1   
    14     9    10 1   
@<TRIPOS>SUBSTRUCTURE
     1 G3H         1 TEMP              0 ****  ****    0 ROOT
