@<TRIPOS>MOLECULE
G3H
   15    14     1     0     0
SMALL
No Charge or Current Charge


@<TRIPOS>ATOM
      1 O1          -4.0710    -0.5240     0.0140 o          1 G3H      -0.585100
      2 C1          -2.9070    -0.9180     0.0810 c          1 G3H       0.543900
      3 C2          -1.7050     0.0220     0.3360 c3         1 G3H       0.032300
      4 O2          -2.1330     1.4030     0.5380 oh         1 G3H      -0.642000
      5 C3          -0.7080    -0.1020    -0.8540 c3         1 G3H       0.239600
      6 O1P          0.5210     0.5960    -0.5840 os         1 G3H      -0.564400
      7 O2P          2.1670    -1.3230    -0.4390 o          1 G3H      -0.923833
      8 O3P          2.8470     0.8690     0.3360 o          1 G3H      -0.923833
      9 O4P          1.2630    -0.4240     1.6370 o          1 G3H      -0.923833
     10 P            1.7120    -0.0900     0.2590 p5         1 G3H       1.271900
     11 H11         -2.6640    -2.0010    -0.0000 h4         1 G3H      -0.036800
     12 H2          -1.2240    -0.3650     1.2410 h1         1 G3H       0.080700
     13 HO2         -3.1090     1.4150     0.4030 ho         1 G3H       0.439000
     14 H31         -0.5090    -1.1650    -1.0450 h1         1 G3H      -0.003300
     15 H32         -1.1770     0.3050    -1.7600 h1         1 G3H      -0.003300
@<TRIPOS>BOND
     1     1     2 2   
     2     2     3 1   
     3     2    11 1   
     4     3     4 1   
     5     3     5 1   
     6     3    12 1   
     7     4    13 1   
     8     5     6 1   
     9     5    14 1   
    10     5    15 1   
    11     6    10 1   
    12     7    10 1   
    13     8    10 1   
    14     9    10 1   
@<TRIPOS>SUBSTRUCTURE
     1 G3H         1 TEMP              0 ****  ****    0 ROOT
