@<TRIPOS>MOLECULE
G3J
   48    51     1     0     0
SMALL
No Charge or Current Charge


@<TRIPOS>ATOM
      1 N3          -2.2660     3.0980     0.2930 nc         1 G3J      -0.517800
      2 C10          0.6880    -1.0500    -1.0370 c6         1 G3J       0.287800
      3 C13          4.3520    -2.0720    -1.9520 c3         1 G3J      -0.094100
      4 C15          4.5730    -0.1300     0.3760 c          1 G3J       0.603100
      5 C20         -0.1000     1.1970    -0.1480 ca         1 G3J      -0.066000
      6 C21          2.5160     2.0700     0.2960 ca         1 G3J      -0.095000
      7 C22          1.4350     2.9120     0.5990 ca         1 G3J      -0.080000
      8 C24         -1.0320     3.3860     0.6760 cd         1 G3J       0.305500
      9 C03         -4.0390    -3.0610    -1.6530 ca         1 G3J      -0.158000
     10 C04         -3.9550    -2.4210    -0.4040 ca         1 G3J      -0.056000
     11 C05         -2.7090    -1.9870     0.0810 ca         1 G3J       0.039000
     12 C06         -2.8790    -3.2690    -2.4170 ca         1 G3J      -0.061000
     13 C07         -1.6330    -2.8340    -1.9330 ca         1 G3J      -0.184000
     14 C08         -1.5380    -2.1870    -0.6880 ca         1 G3J       0.346000
     15 C1          -0.9830     4.6140     1.3760 cd         1 G3J      -0.215000
     16 C11          1.9400    -1.9450    -1.1900 c6         1 G3J      -0.105400
     17 C12          3.1880    -1.1140    -1.5590 c6         1 G3J       0.115700
     18 C16          4.4110     0.2270     1.8590 c3         1 G3J      -0.173100
     19 C18          2.3090     0.7910    -0.2620 ca         1 G3J      -0.032000
     20 C19          0.9810     0.3350    -0.4370 ca         1 G3J      -0.154300
     21 C2          -2.2480     5.1250     1.4320 cc         1 G3J      -0.177000
     22 C23          0.1100     2.4870     0.3840 ca         1 G3J      -0.119500
     23 N14          3.4050    -0.1370    -0.4440 n          1 G3J      -0.232400
     24 N4          -3.0080     4.1730     0.7600 na         1 G3J       0.002800
     25 O17          5.6790    -0.4650    -0.0300 o          1 G3J      -0.580100
     26 H2           0.2820    -0.8690    -2.0450 h1         1 G3J       0.064700
     27 H3           4.0450    -2.7460    -2.7600 hc         1 G3J       0.046367
     28 H4           5.2210    -1.5160    -2.3220 hc         1 G3J       0.046367
     29 H5           4.6680    -2.6970    -1.1080 hc         1 G3J       0.046367
     30 H6          -1.1140     0.8510    -0.3350 ha         1 G3J       0.135000
     31 H7           3.5230     2.4450     0.4560 ha         1 G3J       0.130000
     32 H8           1.6430     3.9030     0.9950 ha         1 G3J       0.117000
     33 H9          -5.0040    -3.3970    -2.0280 ha         1 G3J       0.117000
     34 H10         -4.8530    -2.2630     0.1880 ha         1 G3J       0.124000
     35 H11         -2.9450    -3.7690    -3.3820 ha         1 G3J       0.111000
     36 H12         -0.7410    -3.0090    -2.5270 ha         1 G3J       0.114000
     37 H13         -0.1000     5.0760     1.8030 ha         1 G3J       0.146000
     38 H14          2.1390    -2.4780    -0.2490 hc         1 G3J       0.059200
     39 H15          1.7430    -2.7140    -1.9480 hc         1 G3J       0.059200
     40 H16          2.9530    -0.5330    -2.4630 h1         1 G3J       0.063700
     41 H17          5.0770    -0.3810     2.4810 hc         1 G3J       0.061700
     42 H18          4.6970     1.2740     2.0040 hc         1 G3J       0.061700
     43 H19          3.3670     0.1420     2.1810 hc         1 G3J       0.061700
     44 H20         -2.6550     6.0300     1.8680 h4         1 G3J       0.154000
     45 H1          -4.0160     4.2200     0.6040 hn         1 G3J       0.372000
     46 N09         -0.2950    -1.7560    -0.2080 nu         1 G3J      -0.956200
     47 Cl2         -2.6370    -1.1850     1.6570 cl         1 G3J      -0.219000
     48 H21         -0.3450    -1.4290     0.7570 hn         1 G3J       0.487000
@<TRIPOS>BOND
     1     1     8 2   
     2     1    24 1   
     3     2    16 1   
     4     2    20 1   
     5     2    26 1   
     6     2    46 1   
     7     3    17 1   
     8     3    27 1   
     9     3    28 1   
    10     3    29 1   
    11     4    18 1   
    12     4    23 1   
    13     4    25 2   
    14     5    20 ar  
    15     5    22 ar  
    16     5    30 1   
    17     6     7 ar  
    18     6    19 ar  
    19     6    31 1   
    20     7    22 ar  
    21     7    32 1   
    22     8    15 1   
    23     8    22 1   
    24     9    10 ar  
    25     9    12 ar  
    26     9    33 1   
    27    10    11 ar  
    28    10    34 1   
    29    11    14 ar  
    30    11    47 1   
    31    12    13 ar  
    32    12    35 1   
    33    13    14 ar  
    34    13    36 1   
    35    14    46 1   
    36    15    21 2   
    37    15    37 1   
    38    16    17 1   
    39    16    38 1   
    40    16    39 1   
    41    17    23 1   
    42    17    40 1   
    43    18    41 1   
    44    18    42 1   
    45    18    43 1   
    46    19    20 ar  
    47    19    23 1   
    48    21    24 1   
    49    21    44 1   
    50    24    45 1   
    51    46    48 1   
@<TRIPOS>SUBSTRUCTURE
     1 G3J         1 TEMP              0 ****  ****    0 ROOT
