@<TRIPOS>MOLECULE
G3J
   48    51     1     0     0
SMALL
abcg2


@<TRIPOS>ATOM
      1 N3          -2.3860     2.8780    -0.5450 nc         1 G3J      -0.517800
      2 C10          0.8270    -1.1690    -0.9180 c6         1 G3J       0.287800
      3 C13          4.6130    -1.6110    -1.6400 c3         1 G3J      -0.094100
      4 C15          3.9490    -0.3140     1.1940 c          1 G3J       0.603100
      5 C20         -0.1140     1.1300    -0.5140 ca         1 G3J      -0.066000
      6 C21          2.3120     2.1180     0.3540 ca         1 G3J      -0.095000
      7 C22          1.2100     2.9500     0.2950 ca         1 G3J      -0.080000
      8 C24         -1.1900     3.3520    -0.2270 cd         1 G3J       0.305500
      9 C03         -4.2550    -2.2080    -0.4480 ca         1 G3J      -0.158000
     10 C04         -3.6200    -2.5450     0.7370 ca         1 G3J      -0.056000
     11 C05         -2.2460    -2.4320     0.8460 ca         1 G3J       0.039000
     12 C06         -3.4840    -1.7620    -1.5120 ca         1 G3J      -0.061000
     13 C07         -2.1090    -1.6520    -1.4020 ca         1 G3J      -0.184000
     14 C08         -1.4380    -1.9830    -0.2140 ca         1 G3J       0.346000
     15 C1          -1.2460     4.7470    -0.0210 cd         1 G3J      -0.215000
     16 C11          2.1630    -1.9180    -1.0300 c6         1 G3J      -0.105400
     17 C12          3.3180    -0.9450    -1.2060 c6         1 G3J       0.115700
     18 C16          5.0230    -1.3670     1.2810 c3         1 G3J      -0.173100
     19 C18          2.2030     0.7790    -0.0070 ca         1 G3J      -0.032000
     20 C19          0.9810     0.2740    -0.4510 ca         1 G3J      -0.154300
     21 C2          -2.5620     5.0760    -0.2400 cc         1 G3J      -0.177000
     22 C23         -0.0250     2.4670    -0.1390 ca         1 G3J      -0.119500
     23 N14          3.3340    -0.0800    -0.0080 n          1 G3J      -0.232400
     24 N4          -3.1890     3.9300    -0.5470 na         1 G3J       0.002800
     25 O17          3.6450     0.3280     2.1860 o          1 G3J      -0.580100
     26 H2           0.4060    -1.1250    -1.9230 h1         1 G3J       0.064700
     27 H3           4.4810    -1.9240    -2.6750 hc         1 G3J       0.046367
     28 H4           5.4530    -0.9170    -1.6150 hc         1 G3J       0.046367
     29 H5           4.8720    -2.4990    -1.0700 hc         1 G3J       0.046367
     30 H6          -1.0640     0.7550    -0.8740 ha         1 G3J       0.135000
     31 H7           3.2670     2.5200     0.6620 ha         1 G3J       0.130000
     32 H8           1.3250     3.9870     0.5800 ha         1 G3J       0.117000
     33 H9          -5.3300    -2.2920    -0.5330 ha         1 G3J       0.117000
     34 H10         -4.1920    -2.8940     1.5860 ha         1 G3J       0.124000
     35 H11         -3.9540    -1.4900    -2.4480 ha         1 G3J       0.111000
     36 H12         -1.5520    -1.3000    -2.2600 ha         1 G3J       0.114000
     37 H13         -0.4470     5.4220     0.2390 ha         1 G3J       0.146000
     38 H14          2.3410    -2.5170    -0.1310 hc         1 G3J       0.059200
     39 H15          2.1110    -2.6190    -1.8650 hc         1 G3J       0.059200
     40 H16          3.0710    -0.2570    -2.0180 h1         1 G3J       0.063700
     41 H17          5.8450    -1.1700     0.5960 hc         1 G3J       0.061700
     42 H18          5.4140    -1.3720     2.2950 hc         1 G3J       0.061700
     43 H19          4.6360    -2.3610     1.0620 hc         1 G3J       0.061700
     44 H20         -3.0800     6.0200    -0.2040 h4         1 G3J       0.154000
     45 H1          -4.1670     3.8130    -0.7610 hn         1 G3J       0.372000
     46 N09         -0.0760    -1.9320    -0.0810 nu         1 G3J      -0.956200
     47 CL2         -1.4950    -2.8660     2.3570 cl         1 G3J      -0.219000
     48 H21          0.2730    -2.0820     0.8540 hn         1 G3J       0.487000
@<TRIPOS>BOND
     1     1     8 2   
     2     1    24 1   
     3     2    16 1   
     4     2    20 1   
     5     2    26 1   
     6     2    46 1   
     7     3    17 1   
     8     3    27 1   
     9     3    28 1   
    10     3    29 1   
    11     4    18 1   
    12     4    23 1   
    13     4    25 2   
    14     5    20 ar  
    15     5    22 ar  
    16     5    30 1   
    17     6     7 ar  
    18     6    19 ar  
    19     6    31 1   
    20     7    22 ar  
    21     7    32 1   
    22     8    15 1   
    23     8    22 1   
    24     9    10 ar  
    25     9    12 ar  
    26     9    33 1   
    27    10    11 ar  
    28    10    34 1   
    29    11    14 ar  
    30    11    47 1   
    31    12    13 ar  
    32    12    35 1   
    33    13    14 ar  
    34    13    36 1   
    35    14    46 1   
    36    15    21 2   
    37    15    37 1   
    38    16    17 1   
    39    16    38 1   
    40    16    39 1   
    41    17    23 1   
    42    17    40 1   
    43    18    41 1   
    44    18    42 1   
    45    18    43 1   
    46    19    20 ar  
    47    19    23 1   
    48    21    24 1   
    49    21    44 1   
    50    24    45 1   
    51    46    48 1   
@<TRIPOS>SUBSTRUCTURE
     1 G3J         1 TEMP              0 ****  ****    0 ROOT
