@<TRIPOS>MOLECULE
G3K
   48    50     1     0     0
SMALL
bcc


@<TRIPOS>ATOM
      1 C1           3.6340     1.4290    -1.4180 c          1 G3K       0.652700
      2 C10         -0.2890    -1.0460     0.0440 c          1 G3K       0.660100
      3 C11         -1.1560    -1.2570     1.3070 c3         1 G3K       0.095800
      4 C12         -1.9700    -2.5440     1.4620 c3         1 G3K      -0.105100
      5 C13         -0.1820    -1.1270     2.4810 c3         1 G3K      -0.105100
      6 C14         -3.0440     0.0900     0.5840 ca         1 G3K       0.182100
      7 C15         -3.9410     1.0810     0.9850 ca         1 G3K      -0.180500
      8 C16         -5.0380     1.4080     0.2070 ca         1 G3K      -0.089500
      9 C17         -5.2510     0.7360    -0.9870 ca         1 G3K      -0.020600
     10 C18         -4.3730    -0.2500    -1.4000 ca         1 G3K      -0.089500
     11 C19         -3.2700    -0.5720    -0.6220 ca         1 G3K      -0.180500
     12 C2           3.9950     1.4760    -0.0250 cc         1 G3K      -0.043100
     13 C3           3.5140     0.5410     0.8390 cd         1 G3K       0.079400
     14 C4           3.8160     0.5890     2.3280 c          1 G3K       0.953800
     15 C5           2.3930    -0.5420    -0.8250 cc         1 G3K       0.414900
     16 C6           1.5620    -1.6860    -1.3450 c5         1 G3K       0.089400
     17 C7           2.3760    -2.9780    -1.4620 c5         1 G3K      -0.092400
     18 C8           1.3330    -4.0600    -1.2320 c5         1 G3K      -0.095400
     19 C9           0.4630    -3.4700    -0.1300 c5         1 G3K       0.115000
     20 N1           2.7210    -0.4850     0.4170 nd         1 G3K      -0.562300
     21 N2           0.4960    -2.0370    -0.4150 n          1 G3K      -0.473800
     22 N3           2.8180     0.3700    -1.7310 ns         1 G3K      -0.447400
     23 O1           4.0070     2.2480    -2.2550 o          1 G3K      -0.700500
     24 O2           4.7810     2.4930     0.3800 oh         1 G3K      -0.455100
     25 O3           2.8250     0.7260     3.0650 o          1 G3K      -0.803800
     26 O4           5.0090     0.4800     2.6520 o          1 G3K      -0.803800
     27 O5          -2.0140    -0.1270     1.4240 os         1 G3K      -0.296900
     28 O6          -0.2240     0.0710    -0.4440 o          1 G3K      -0.572100
     29 CL1         -6.6290     1.1320    -1.9660 cl         1 G3K      -0.140400
     30 H1          -1.3440    -3.3650     1.8040 hc         1 G3K       0.058867
     31 H2          -2.7180    -2.3780     2.2380 hc         1 G3K       0.058867
     32 H3          -2.4890    -2.8670     0.5610 hc         1 G3K       0.058867
     33 H4           0.4190    -0.2210     2.4230 hc         1 G3K       0.058867
     34 H5          -0.7360    -1.1330     3.4210 hc         1 G3K       0.058867
     35 H6           0.5070    -1.9700     2.4920 hc         1 G3K       0.058867
     36 H7          -3.7760     1.6000     1.9210 ha         1 G3K       0.144000
     37 H8          -5.7220     2.1770     0.5390 ha         1 G3K       0.137000
     38 H9          -4.5340    -0.7740    -2.3320 ha         1 G3K       0.137000
     39 H10         -2.6140    -1.3470    -0.9890 ha         1 G3K       0.144000
     40 H11          1.1450    -1.4160    -2.3210 h1         1 G3K       0.050700
     41 H12          2.8810    -3.0500    -2.4240 hc         1 G3K       0.067200
     42 H13          3.1340    -3.0140    -0.6770 hc         1 G3K       0.067200
     43 H14          0.7390    -4.2190    -2.1340 hc         1 G3K       0.046200
     44 H15          1.7660    -5.0160    -0.9410 hc         1 G3K       0.046200
     45 H16         -0.5500    -3.8600    -0.1730 h1         1 G3K       0.046700
     46 H17          0.8790    -3.6910     0.8570 h1         1 G3K       0.046700
     47 H18          2.5090     0.2980    -2.6930 hn         1 G3K       0.308500
     48 H19          4.9710     3.0550    -0.3840 ho         1 G3K       0.417000
@<TRIPOS>BOND
     1     1    12 1   
     2     1    22 1   
     3     1    23 2   
     4     2     3 1   
     5     2    21 1   
     6     2    28 2   
     7     3     4 1   
     8     3     5 1   
     9     3    27 1   
    10     4    30 1   
    11     4    31 1   
    12     4    32 1   
    13     5    33 1   
    14     5    34 1   
    15     5    35 1   
    16     6     7 ar  
    17     6    11 ar  
    18     6    27 1   
    19     7     8 ar  
    20     7    36 1   
    21     8     9 ar  
    22     8    37 1   
    23     9    10 ar  
    24     9    29 1   
    25    10    11 ar  
    26    10    38 1   
    27    11    39 1   
    28    12    13 2   
    29    12    24 1   
    30    13    14 1   
    31    13    20 1   
    32    14    25 1   
    33    14    26 1   
    34    15    16 1   
    35    15    20 2   
    36    15    22 1   
    37    16    17 1   
    38    16    21 1   
    39    16    40 1   
    40    17    18 1   
    41    17    41 1   
    42    17    42 1   
    43    18    19 1   
    44    18    43 1   
    45    18    44 1   
    46    19    21 1   
    47    19    45 1   
    48    19    46 1   
    49    22    47 1   
    50    24    48 1   
@<TRIPOS>SUBSTRUCTURE
     1 G3K         1 TEMP              0 ****  ****    0 ROOT
