@<TRIPOS>MOLECULE
G3K
   48    50     1     0     0
SMALL
No Charge or Current Charge


@<TRIPOS>ATOM
      1 C1           3.6570     1.4320    -1.6380 c          1 G3K       0.510200
      2 C10         -0.3580    -1.1730     0.0620 c          1 G3K       0.593100
      3 C11         -1.3460    -1.4490     1.2690 c3         1 G3K       0.119000
      4 C12         -2.2490    -2.7140     1.1420 c3         1 G3K      -0.105100
      5 C13         -0.5120    -1.5460     2.5730 c3         1 G3K      -0.105100
      6 C14         -3.2350     0.1400     0.6870 ca         1 G3K       0.182100
      7 C15         -4.0960     1.1210     1.2100 ca         1 G3K      -0.162500
      8 C16         -5.1480     1.6410     0.4350 ca         1 G3K      -0.071500
      9 C17         -5.3430     1.1820    -0.8770 ca         1 G3K       0.071000
     10 C18         -4.4860     0.2070    -1.4140 ca         1 G3K      -0.071500
     11 C19         -3.4340    -0.3140    -0.6380 ca         1 G3K      -0.162500
     12 C2           4.0710     1.6440    -0.2390 cc         1 G3K      -0.043100
     13 C3           3.7620     0.7420     0.7930 cd         1 G3K       0.079400
     14 C4           4.2070     0.9900     2.2400 c          1 G3K       0.743200
     15 C5           2.6420    -0.5930    -0.8390 cc         1 G3K       0.414900
     16 C6           1.8290    -1.8330    -1.2160 c5         1 G3K       0.089400
     17 C7           2.6670    -3.1320    -1.0600 c5         1 G3K      -0.092400
     18 C8           1.5590    -4.2080    -1.0720 c5         1 G3K      -0.095400
     19 C9           0.5010    -3.6050    -0.1070 c5         1 G3K       0.115000
     20 N1           3.0150    -0.4150     0.4340 nd         1 G3K      -0.562300
     21 N2           0.6400    -2.1440    -0.3250 n          1 G3K      -0.406800
     22 N3           2.9610     0.2980    -1.8230 ns         1 G3K      -0.380400
     23 O1           3.9110     2.1970    -2.5590 o          1 G3K      -0.625000
     24 O2           4.7730     2.8040    -0.1010 oh         1 G3K      -0.494100
     25 O3           3.8990     0.1560     3.0860 o          1 G3K      -0.698500
     26 O4           4.8510     1.9860     2.5530 o          1 G3K      -0.698500
     27 O5          -2.2290    -0.3190     1.5250 os         1 G3K      -0.320100
     28 O6          -0.3520    -0.0900    -0.5150 o          1 G3K      -0.572100
     29 Cl1         -6.6560     1.8310    -1.8500 cl         1 G3K      -0.232000
     30 H1          -1.7340    -3.6120     1.5020 hc         1 G3K       0.058867
     31 H2          -3.1550    -2.6080     1.7510 hc         1 G3K       0.058867
     32 H3          -2.5540    -2.8990     0.1070 hc         1 G3K       0.058867
     33 H4           0.0880    -0.6390     2.7130 hc         1 G3K       0.058867
     34 H5          -1.1650    -1.6600     3.4470 hc         1 G3K       0.058867
     35 H6           0.1740    -2.3990     2.5530 hc         1 G3K       0.058867
     36 H7          -3.9470     1.4770     2.2260 ha         1 G3K       0.126000
     37 H8          -5.8090     2.3980     0.8500 ha         1 G3K       0.119000
     38 H9          -4.6360    -0.1420    -2.4330 ha         1 G3K       0.119000
     39 H10         -2.7840    -1.0520    -1.0910 ha         1 G3K       0.126000
     40 H11          1.4790    -1.7350    -2.2530 h1         1 G3K       0.050700
     41 H12          3.3940    -3.2620    -1.8700 hc         1 G3K       0.067200
     42 H13          3.2220    -3.1520    -0.1140 hc         1 G3K       0.067200
     43 H14          1.1450    -4.3340    -2.0790 hc         1 G3K       0.046200
     44 H15          1.9150    -5.1900    -0.7410 hc         1 G3K       0.046200
     45 H16         -0.4970    -3.9780    -0.3650 h1         1 G3K       0.046700
     46 H17          0.7230    -3.8700     0.9350 h1         1 G3K       0.046700
     47 H18          2.6520     0.1180    -2.7670 hn         1 G3K       0.308500
     48 H19          4.8170     3.2020    -1.0020 ho         1 G3K       0.456000
@<TRIPOS>BOND
     1     1    12 1   
     2     1    22 1   
     3     1    23 2   
     4     2     3 1   
     5     2    21 1   
     6     2    28 2   
     7     3     4 1   
     8     3     5 1   
     9     3    27 1   
    10     4    30 1   
    11     4    31 1   
    12     4    32 1   
    13     5    33 1   
    14     5    34 1   
    15     5    35 1   
    16     6     7 ar  
    17     6    11 ar  
    18     6    27 1   
    19     7     8 ar  
    20     7    36 1   
    21     8     9 ar  
    22     8    37 1   
    23     9    10 ar  
    24     9    29 1   
    25    10    11 ar  
    26    10    38 1   
    27    11    39 1   
    28    12    13 2   
    29    12    24 1   
    30    13    14 1   
    31    13    20 1   
    32    14    25 1   
    33    14    26 1   
    34    15    16 1   
    35    15    20 2   
    36    15    22 1   
    37    16    17 1   
    38    16    21 1   
    39    16    40 1   
    40    17    18 1   
    41    17    41 1   
    42    17    42 1   
    43    18    19 1   
    44    18    43 1   
    45    18    44 1   
    46    19    21 1   
    47    19    45 1   
    48    19    46 1   
    49    22    47 1   
    50    24    48 1   
@<TRIPOS>SUBSTRUCTURE
     1 G3K         1 TEMP              0 ****  ****    0 ROOT
