@<TRIPOS>MOLECULE
G3L
   71    76     1     0     0
SMALL
No Charge or Current Charge


@<TRIPOS>ATOM
      1 O1         -30.5740    15.5140   -22.7450 op         1 G3L      -0.422000
      2 O2         -33.1100    14.4170   -21.5900 os         1 G3L      -0.429100
      3 O3         -31.7760    14.2340   -26.2120 o          1 G3L      -0.500100
      4 O4         -28.2500     9.6490   -27.9870 os         1 G3L      -0.470100
      5 O5         -28.5580     9.7180   -24.6180 os         1 G3L      -0.464100
      6 O6         -34.1010    15.9640   -22.9180 o          1 G3L      -0.478000
      7 O7         -32.2770    11.2340   -18.3800 os         1 G3L      -0.229000
      8 O8         -27.6120     7.7790   -26.9060 o          1 G3L      -0.504000
      9 O9         -27.1960     8.5810   -23.1530 o          1 G3L      -0.480000
     10 C1         -30.8430    14.2500   -23.4110 cx         1 G3L       0.127000
     11 C2         -29.8920    13.9100   -24.6480 c6         1 G3L      -0.114000
     12 C3         -31.1810    13.0830   -22.4410 c6         1 G3L      -0.052000
     13 C4         -29.0970    12.5160   -24.3760 c6         1 G3L      -0.055700
     14 C5         -31.8290    15.3930   -23.4620 cx         1 G3L      -0.009700
     15 C6         -28.1360    11.9770   -25.5370 c6         1 G3L      -0.013000
     16 C7         -29.8320    12.4200   -21.9390 c6         1 G3L      -0.062400
     17 C8         -28.6090    12.5100   -22.9060 c6         1 G3L      -0.073400
     18 C9         -29.0620    11.7740   -26.8410 c6         1 G3L      -0.066700
     19 C10        -30.6560    13.7740   -26.0300 c          1 G3L       0.579100
     20 C11        -31.9320    13.6830   -21.1920 c6         1 G3L       0.274600
     21 C12        -28.9700    15.1960   -24.8820 c3         1 G3L      -0.081100
     22 C13        -29.8850    13.0820   -27.2060 c6         1 G3L      -0.183400
     23 C14        -27.5050    10.5930   -25.0750 c3         1 G3L       0.185300
     24 C15        -32.1540    12.0540   -23.1430 c3         1 G3L      -0.085100
     25 C16        -33.1040    15.3170   -22.6300 c          1 G3L       0.683100
     26 C17        -28.4360    11.0800   -28.1530 c3         1 G3L       0.233000
     27 C18        -26.9280    12.9690   -25.7380 c3         1 G3L      -0.092100
     28 C19        -32.3120    12.6240   -20.1770 cc         1 G3L      -0.173300
     29 C20        -26.6490     9.8060   -26.0910 c3         1 G3L      -0.220400
     30 C21        -27.1710    11.7270   -28.7890 c3         1 G3L      -0.106100
     31 C22        -29.4820    11.0290   -29.3060 c3         1 G3L      -0.106100
     32 C23        -27.4780     8.9840   -27.0620 c          1 G3L       0.688100
     33 C24        -33.5180    11.8910   -20.1600 cc         1 G3L      -0.155000
     34 C25        -31.6010    12.2070   -19.0840 cd         1 G3L       0.139900
     35 C26        -28.2800     8.7450   -23.6940 c          1 G3L       0.603100
     36 C27        -33.4570    11.0680   -19.0700 cd         1 G3L       0.113900
     37 C28        -29.5280     7.9540   -23.3400 c3         1 G3L      -0.156100
     38 H1         -29.8680    11.7480   -24.3910 hc         1 G3L       0.068700
     39 H2         -31.9030    16.0030   -24.3600 h1         1 G3L       0.126700
     40 H3         -30.0170    11.3650   -21.6930 hc         1 G3L       0.050200
     41 H4         -29.5150    12.8780   -20.9920 hc         1 G3L       0.050200
     42 H5         -27.9400    11.6740   -22.6770 hc         1 G3L       0.053700
     43 H6         -28.0320    13.4200   -22.6980 hc         1 G3L       0.053700
     44 H7         -29.8300    11.0440   -26.5450 hc         1 G3L       0.079700
     45 H8         -31.2590    14.3950   -20.6920 h1         1 G3L       0.073700
     46 H9         -28.2630    15.3490   -24.0580 hc         1 G3L       0.048367
     47 H10        -28.3950    15.1580   -25.8080 hc         1 G3L       0.048367
     48 H11        -29.5640    16.1130   -24.9760 hc         1 G3L       0.048367
     49 H12        -29.1610    13.8210   -27.5700 hc         1 G3L       0.072700
     50 H13        -30.6220    12.9350   -28.0040 hc         1 G3L       0.072700
     51 H14        -26.8290    10.8370   -24.2450 h1         1 G3L       0.072700
     52 H15        -32.1830    11.0970   -22.6080 hc         1 G3L       0.048700
     53 H16        -33.1840    12.4270   -23.1770 hc         1 G3L       0.048700
     54 H17        -31.9100    11.8350   -24.1850 hc         1 G3L       0.048700
     55 H18        -26.7500    13.5740   -24.8430 hc         1 G3L       0.042367
     56 H19        -25.9710    12.4750   -25.9230 hc         1 G3L       0.042367
     57 H20        -27.0800    13.6490   -26.5820 hc         1 G3L       0.042367
     58 H21        -26.0030     9.1180   -25.5360 hc         1 G3L       0.086200
     59 H22        -26.0070    10.4820   -26.6430 hc         1 G3L       0.086200
     60 H23        -26.3490    11.9020   -28.0990 hc         1 G3L       0.051533
     61 H24        -26.7870    11.1000   -29.6030 hc         1 G3L       0.051533
     62 H25        -27.4210    12.7050   -29.2180 hc         1 G3L       0.051533
     63 H26        -30.4500    10.6600   -28.9440 hc         1 G3L       0.051533
     64 H27        -29.6350    12.0120   -29.7660 hc         1 G3L       0.051533
     65 H28        -29.1510    10.3570   -30.1080 hc         1 G3L       0.051533
     66 H29        -34.3330    11.9750   -20.8730 ha         1 G3L       0.152000
     67 H30        -30.6320    12.5130   -18.7090 h4         1 G3L       0.054100
     68 H31        -34.1650    10.3440   -18.6880 h4         1 G3L       0.056100
     69 H32        -29.3480     7.2080   -22.5580 hc         1 G3L       0.073367
     70 H33        -30.3220     8.6560   -23.0590 hc         1 G3L       0.073367
     71 H34        -29.9290     7.5030   -24.2540 hc         1 G3L       0.073367
@<TRIPOS>BOND
     1     1    10 1   
     2     1    14 1   
     3     2    20 1   
     4     2    25 1   
     5     3    19 2   
     6     4    26 1   
     7     4    32 1   
     8     5    23 1   
     9     5    35 1   
    10     6    25 2   
    11     7    34 1   
    12     7    36 1   
    13     8    32 2   
    14     9    35 2   
    15    10    11 1   
    16    10    12 1   
    17    10    14 1   
    18    11    13 1   
    19    11    19 1   
    20    11    21 1   
    21    12    16 1   
    22    12    20 1   
    23    12    24 1   
    24    13    15 1   
    25    13    17 1   
    26    13    38 1   
    27    14    25 1   
    28    14    39 1   
    29    15    18 1   
    30    15    23 1   
    31    15    27 1   
    32    16    17 1   
    33    16    40 1   
    34    16    41 1   
    35    17    42 1   
    36    17    43 1   
    37    18    22 1   
    38    18    26 1   
    39    18    44 1   
    40    19    22 1   
    41    20    28 1   
    42    20    45 1   
    43    21    46 1   
    44    21    47 1   
    45    21    48 1   
    46    22    49 1   
    47    22    50 1   
    48    23    29 1   
    49    23    51 1   
    50    24    52 1   
    51    24    53 1   
    52    24    54 1   
    53    26    30 1   
    54    26    31 1   
    55    27    55 1   
    56    27    56 1   
    57    27    57 1   
    58    28    33 1   
    59    28    34 2   
    60    29    32 1   
    61    29    58 1   
    62    29    59 1   
    63    30    60 1   
    64    30    61 1   
    65    30    62 1   
    66    31    63 1   
    67    31    64 1   
    68    31    65 1   
    69    33    36 2   
    70    33    66 1   
    71    34    67 1   
    72    35    37 1   
    73    36    68 1   
    74    37    69 1   
    75    37    70 1   
    76    37    71 1   
@<TRIPOS>SUBSTRUCTURE
     1 G3L         1 TEMP              0 ****  ****    0 ROOT
