@<TRIPOS>MOLECULE
G3L
   71    76     1     0     0
SMALL
abcg2


@<TRIPOS>ATOM
      1 O1         -30.5010    15.3360   -22.8000 op         1 G3L      -0.422000
      2 O2         -32.9460    14.4130   -21.6140 os         1 G3L      -0.429100
      3 O3         -31.8720    13.7240   -26.0560 o          1 G3L      -0.500100
      4 O4         -28.2360     9.7240   -27.8980 os         1 G3L      -0.470100
      5 O5         -28.6230     9.7750   -24.6740 os         1 G3L      -0.464100
      6 O6         -33.9520    15.8000   -22.9770 o          1 G3L      -0.478000
      7 O7         -32.3330    11.4830   -18.3530 os         1 G3L      -0.229000
      8 O8         -27.3000     7.9110   -27.1780 o          1 G3L      -0.504000
      9 O9         -27.4270     8.7680   -23.0720 o          1 G3L      -0.480000
     10 C1         -30.7820    14.1200   -23.4740 cx         1 G3L       0.127000
     11 C2         -29.8860    13.8170   -24.6990 c6         1 G3L      -0.114000
     12 C3         -31.1200    12.9910   -22.5010 c6         1 G3L      -0.052000
     13 C4         -29.1200    12.4860   -24.4190 c6         1 G3L      -0.055700
     14 C5         -31.7150    15.2500   -23.5150 cx         1 G3L      -0.009700
     15 C6         -28.1560    11.9830   -25.5400 c6         1 G3L      -0.013000
     16 C7         -29.7960    12.3300   -22.0310 c6         1 G3L      -0.062400
     17 C8         -28.6130    12.5620   -22.9790 c6         1 G3L      -0.073400
     18 C9         -29.0660    11.7660   -26.7910 c6         1 G3L      -0.066700
     19 C10        -30.6790    13.5570   -25.9640 c          1 G3L       0.579100
     20 C11        -31.7880    13.6330   -21.2590 c6         1 G3L       0.274600
     21 C12        -29.0020    15.0530   -24.9570 c3         1 G3L      -0.081100
     22 C13        -29.8610    13.0450   -27.1280 c6         1 G3L      -0.183400
     23 C14        -27.5520    10.6450   -25.0530 c3         1 G3L       0.185300
     24 C15        -32.0840    11.9890   -23.1470 c3         1 G3L      -0.085100
     25 C16        -32.9570    15.1890   -22.6880 c          1 G3L       0.683100
     26 C17        -28.4620    11.1490   -28.0840 c3         1 G3L       0.233000
     27 C18        -26.9640    12.9360   -25.7340 c3         1 G3L      -0.092100
     28 C19        -32.2630    12.6630   -20.2320 cc         1 G3L      -0.173300
     29 C20        -26.6580     9.8830   -26.0270 c3         1 G3L      -0.220400
     30 C21        -27.2190    11.8280   -28.6460 c3         1 G3L      -0.106100
     31 C22        -29.5110    11.1210   -29.1990 c3         1 G3L      -0.106100
     32 C23        -27.4090     9.1070   -27.0710 c          1 G3L       0.688100
     33 C24        -33.4590    11.8730   -20.2230 cc         1 G3L      -0.155000
     34 C25        -31.6340    12.3840   -19.0640 cd         1 G3L       0.139900
     35 C26        -28.4550     8.8940   -23.6830 c          1 G3L       0.603100
     36 C27        -33.4410    11.1830   -19.0620 cd         1 G3L       0.113900
     37 C28        -29.7130     8.1170   -23.4410 c3         1 G3L      -0.156100
     38 H1         -29.8920    11.7150   -24.4030 hc         1 G3L       0.068700
     39 H2         -31.7970    15.8800   -24.3950 h1         1 G3L       0.126700
     40 H3         -29.9620    11.2550   -21.9250 hc         1 G3L       0.050200
     41 H4         -29.5230    12.6920   -21.0380 hc         1 G3L       0.050200
     42 H5         -27.8500    11.8190   -22.7510 hc         1 G3L       0.053700
     43 H6         -28.1460    13.5300   -22.7810 hc         1 G3L       0.053700
     44 H7         -29.8260    11.0340   -26.4880 hc         1 G3L       0.079700
     45 H8         -31.0620    14.2940   -20.7820 h1         1 G3L       0.073700
     46 H9         -28.2650    15.1940   -24.1680 hc         1 G3L       0.048367
     47 H10        -28.4640    14.9920   -25.8960 hc         1 G3L       0.048367
     48 H11        -29.6050    15.9570   -25.0130 hc         1 G3L       0.048367
     49 H12        -29.2010    13.8370   -27.4920 hc         1 G3L       0.072700
     50 H13        -30.5720    12.8500   -27.9270 hc         1 G3L       0.072700
     51 H14        -26.9260    10.8670   -24.1860 h1         1 G3L       0.072700
     52 H15        -32.2360    11.1360   -22.4870 hc         1 G3L       0.048700
     53 H16        -33.0600    12.4270   -23.3590 hc         1 G3L       0.048700
     54 H17        -31.7180    11.5880   -24.0880 hc         1 G3L       0.048700
     55 H18        -26.7180    13.4400   -24.8000 hc         1 G3L       0.042367
     56 H19        -26.0570    12.4220   -26.0440 hc         1 G3L       0.042367
     57 H20        -27.1450    13.7010   -26.4840 hc         1 G3L       0.042367
     58 H21        -26.0690     9.1620   -25.4620 hc         1 G3L       0.086200
     59 H22        -25.9310    10.5460   -26.4950 hc         1 G3L       0.086200
     60 H23        -26.3370    11.7630   -28.0180 hc         1 G3L       0.051533
     61 H24        -26.9690    11.3900   -29.6130 hc         1 G3L       0.051533
     62 H25        -27.4230    12.8860   -28.8080 hc         1 G3L       0.051533
     63 H26        -30.4710    10.7400   -28.8460 hc         1 G3L       0.051533
     64 H27        -29.6670    12.1090   -29.6260 hc         1 G3L       0.051533
     65 H28        -29.1620    10.4760   -30.0050 hc         1 G3L       0.051533
     66 H29        -34.2300    11.8320   -20.9750 ha         1 G3L       0.152000
     67 H30        -30.7150    12.7480   -18.6300 h4         1 G3L       0.054100
     68 H31        -34.1230    10.4730   -18.6210 h4         1 G3L       0.056100
     69 H32        -29.5350     7.3220   -22.7220 hc         1 G3L       0.073367
     70 H33        -30.4860     8.7800   -23.0470 hc         1 G3L       0.073367
     71 H34        -30.0930     7.6900   -24.3680 hc         1 G3L       0.073367
@<TRIPOS>BOND
     1     1    10 1   
     2     1    14 1   
     3     2    20 1   
     4     2    25 1   
     5     3    19 2   
     6     4    26 1   
     7     4    32 1   
     8     5    23 1   
     9     5    35 1   
    10     6    25 2   
    11     7    34 1   
    12     7    36 1   
    13     8    32 2   
    14     9    35 2   
    15    10    11 1   
    16    10    12 1   
    17    10    14 1   
    18    11    13 1   
    19    11    19 1   
    20    11    21 1   
    21    12    16 1   
    22    12    20 1   
    23    12    24 1   
    24    13    15 1   
    25    13    17 1   
    26    13    38 1   
    27    14    25 1   
    28    14    39 1   
    29    15    18 1   
    30    15    23 1   
    31    15    27 1   
    32    16    17 1   
    33    16    40 1   
    34    16    41 1   
    35    17    42 1   
    36    17    43 1   
    37    18    22 1   
    38    18    26 1   
    39    18    44 1   
    40    19    22 1   
    41    20    28 1   
    42    20    45 1   
    43    21    46 1   
    44    21    47 1   
    45    21    48 1   
    46    22    49 1   
    47    22    50 1   
    48    23    29 1   
    49    23    51 1   
    50    24    52 1   
    51    24    53 1   
    52    24    54 1   
    53    26    30 1   
    54    26    31 1   
    55    27    55 1   
    56    27    56 1   
    57    27    57 1   
    58    28    33 1   
    59    28    34 2   
    60    29    32 1   
    61    29    58 1   
    62    29    59 1   
    63    30    60 1   
    64    30    61 1   
    65    30    62 1   
    66    31    63 1   
    67    31    64 1   
    68    31    65 1   
    69    33    36 2   
    70    33    66 1   
    71    34    67 1   
    72    35    37 1   
    73    36    68 1   
    74    37    69 1   
    75    37    70 1   
    76    37    71 1   
@<TRIPOS>SUBSTRUCTURE
     1 G3L         1 TEMP              0 ****  ****    0 ROOT
