@<TRIPOS>MOLECULE
G3M
   29    28     1     0     0
SMALL
abcg2


@<TRIPOS>ATOM
      1 O1          -4.2870    -0.0160    -1.2600 o          1 G3M      -0.728500
      2 C9           4.7560    -0.0370    -0.0200 c2         1 G3M       0.783100
      3 C2          -4.0080     0.1380    -0.0520 c          1 G3M       0.740000
      4 C3          -2.7150    -0.5560     0.4230 c3         1 G3M      -0.006500
      5 C4          -1.4990     0.1630    -0.1870 c3         1 G3M       0.143300
      6 C7           2.3420    -0.2680     0.3030 c3         1 G3M       0.212800
      7 C5          -0.1740    -0.3630     0.3580 c3         1 G3M      -0.112400
      8 N8           3.4840     0.3990    -0.2800 nu         1 G3M      -0.894400
      9 O10         -4.6650     0.7850     0.7850 o          1 G3M      -0.728500
     10 N11         -2.8040    -1.9710     0.0910 n8         1 G3M      -0.984200
     11 O12         -1.6060     1.5650    -0.0110 oh         1 G3M      -0.649000
     12 N13          4.9570    -1.1450     0.5930 n2         1 G3M      -0.892100
     13 N14          5.7320     0.8380    -0.4570 nv         1 G3M      -1.069200
     14 H1          -2.6420    -0.4730     1.5150 h1         1 G3M       0.039700
     15 H2          -1.5230     0.0040    -1.2720 h1         1 G3M       0.073700
     16 H3           2.3370    -0.1800     1.3980 h1         1 G3M       0.047200
     17 H4           2.4100    -1.3350     0.0820 h1         1 G3M       0.047200
     18 H5           1.0140     1.3770    -0.0850 hc         1 G3M       0.045700
     19 H6           1.0360     0.1580    -1.3470 hc         1 G3M       0.045700
     20 H7          -0.1560    -0.2300     1.4470 hc         1 G3M       0.033700
     21 H8          -0.1150    -1.4420     0.1850 hc         1 G3M       0.033700
     22 H9           3.3840     1.3990    -0.3700 hn         1 G3M       0.467000
     23 H11         -2.9150    -2.0620    -0.9120 hn         1 G3M       0.375500
     24 H12         -1.9510    -2.4560     0.3370 hn         1 G3M       0.375500
     25 H14         -1.6600     1.7440     0.9340 ho         1 G3M       0.432000
     26 H15          5.9470    -1.3600     0.6230 hn         1 G3M       0.365400
     27 H16          6.6580     0.4470    -0.5120 hn         1 G3M       0.446000
     28 H17          5.5070     1.3740    -1.2810 hn         1 G3M       0.446000
     29 C6           1.0490     0.2980    -0.2620 c3         1 G3M      -0.086400
@<TRIPOS>BOND
     1     1     3 1   
     2     2     8 1   
     3     2    12 2   
     4     2    13 1   
     5     3     4 1   
     6     3     9 1   
     7     4     5 1   
     8     4    10 1   
     9     4    14 1   
    10     5     7 1   
    11     5    11 1   
    12     5    15 1   
    13     6     8 1   
    14     6    16 1   
    15     6    17 1   
    16     6    29 1   
    17     7    20 1   
    18     7    21 1   
    19     7    29 1   
    20     8    22 1   
    21    10    23 1   
    22    10    24 1   
    23    11    25 1   
    24    12    26 1   
    25    13    27 1   
    26    13    28 1   
    27    18    29 1   
    28    19    29 1   
@<TRIPOS>SUBSTRUCTURE
     1 G3M         1 TEMP              0 ****  ****    0 ROOT
