@<TRIPOS>MOLECULE
G3M
   29    28     1     0     0
SMALL
No Charge or Current Charge


@<TRIPOS>ATOM
      1 O1          -4.3800     0.2000    -1.3480 o          1 G3M      -0.728500
      2 C9           4.8090    -0.0540     0.0050 c2         1 G3M       0.783100
      3 C2          -4.1060     0.2410    -0.1530 c          1 G3M       0.740000
      4 C3          -2.8080    -0.5150     0.3480 c3         1 G3M      -0.006500
      5 C4          -1.5250     0.2110    -0.1780 c3         1 G3M       0.143300
      6 C7           2.3810    -0.3720     0.3180 c3         1 G3M       0.212800
      7 C5          -0.1960    -0.3870     0.3660 c3         1 G3M      -0.112400
      8 N8           3.5590     0.2950    -0.2540 nu         1 G3M      -0.894400
      9 O10         -4.8630     0.7160     0.6860 o          1 G3M      -0.728500
     10 N11         -2.7800    -2.0080     0.0760 n8         1 G3M      -0.984200
     11 O12         -1.5790     1.5970     0.1880 oh         1 G3M      -0.649000
     12 N13          5.1580    -0.9700     0.7750 n2         1 G3M      -0.892100
     13 N14          5.5690     0.8070    -0.6200 nv         1 G3M      -1.069200
     14 H1          -2.7990    -0.4110     1.4420 h1         1 G3M       0.039700
     15 H2          -1.5150     0.1210    -1.2740 h1         1 G3M       0.073700
     16 H3           2.4080    -0.3080     1.4150 h1         1 G3M       0.047200
     17 H4           2.3810    -1.4360     0.0420 h1         1 G3M       0.047200
     18 H5           1.0910     1.3470     0.0750 hc         1 G3M       0.045700
     19 H6           1.0630     0.2310    -1.2920 hc         1 G3M       0.045700
     20 H7          -0.1870    -0.3220     1.4620 hc         1 G3M       0.033700
     21 H8          -0.1480    -1.4530     0.1160 hc         1 G3M       0.033700
     22 H9           3.4750     1.2860    -0.4320 hn         1 G3M       0.467000
     23 H11         -2.8690    -2.1650    -0.9360 hn         1 G3M       0.375500
     24 H12         -1.8520    -2.3810     0.3080 hn         1 G3M       0.375500
     25 H14         -1.4210     1.6450     1.1550 ho         1 G3M       0.432000
     26 H15          6.1810    -0.9670     0.8240 hn         1 G3M       0.365400
     27 H16          6.5460     0.5480    -0.6110 hn         1 G3M       0.446000
     28 H17          5.2160     1.0140    -1.5430 hn         1 G3M       0.446000
     29 C6           1.0830     0.2850    -0.1960 c3         1 G3M      -0.086400
@<TRIPOS>BOND
     1     1     3 1   
     2     2     8 1   
     3     2    12 2   
     4     2    13 1   
     5     3     4 1   
     6     3     9 1   
     7     4     5 1   
     8     4    10 1   
     9     4    14 1   
    10     5     7 1   
    11     5    11 1   
    12     5    15 1   
    13     6     8 1   
    14     6    16 1   
    15     6    17 1   
    16     6    29 1   
    17     7    20 1   
    18     7    21 1   
    19     7    29 1   
    20     8    22 1   
    21    10    23 1   
    22    10    24 1   
    23    11    25 1   
    24    12    26 1   
    25    13    27 1   
    26    13    28 1   
    27    18    29 1   
    28    19    29 1   
@<TRIPOS>SUBSTRUCTURE
     1 G3M         1 TEMP              0 ****  ****    0 ROOT
