@<TRIPOS>MOLECULE
G3N
   55    57     1     0     0
SMALL
abcg2


@<TRIPOS>ATOM
      1 O2B         -0.0430     1.1150     2.5550 o          1 G3N      -0.840500
      2 PB           1.3100     1.3070     1.9480 p5         1 G3N       1.474800
      3 O1B          2.4590     1.8710     2.7160 o          1 G3N      -0.840500
      4 O3B          1.7150    -0.1900     1.3730 os         1 G3N      -0.597400
      5 C1           2.9130    -0.4260     0.7110 c6         1 G3N       0.440300
      6 O5           3.6000    -1.3640     1.4920 os         1 G3N      -0.462000
      7 C5           4.8200    -1.7760     0.9110 c6         1 G3N       0.180600
      8 C4           4.5940    -2.4410    -0.4430 c6         1 G3N       0.121500
      9 N4           5.8760    -2.8450    -0.9950 n8         1 G3N      -0.981200
     10 C3           3.8670    -1.4730    -1.3700 c6         1 G3N       0.174300
     11 O3           4.7280    -0.3970    -1.6630 oh         1 G3N      -0.651000
     12 C2           2.5930    -0.9670    -0.6850 c6         1 G3N       0.090300
     13 O2           1.6760    -2.0310    -0.6350 oh         1 G3N      -0.752000
     14 O3A          1.1950     2.0530     0.4910 os         1 G3N      -0.736800
     15 PA           0.8820     3.6500     0.2430 p5         1 G3N       1.461800
     16 O1A          1.9250     4.1870    -0.6800 o          1 G3N      -0.839000
     17 O2A          0.5580     4.2990     1.5510 o          1 G3N      -0.839000
     18 O5D         -0.4740     3.5260    -0.6710 os         1 G3N      -0.588400
     19 C5D         -1.6720     3.0610    -0.0870 c3         1 G3N       0.224600
     20 C4D         -2.4700     2.3250    -1.1360 c5         1 G3N       0.157300
     21 C3D         -3.8040     1.7840    -0.6350 c5         1 G3N       0.080300
     22 O3D         -4.7870     2.7780    -0.6920 oh         1 G3N      -0.709000
     23 C2D         -4.0460     0.6170    -1.6000 c5         1 G3N       0.090300
     24 O2D         -4.5080     1.0780    -2.8400 oh         1 G3N      -0.710000
     25 O4D         -1.7610     1.1700    -1.5850 os         1 G3N      -0.407000
     26 C1D         -2.6210     0.1000    -1.8070 c5         1 G3N       0.343700
     27 N1          -2.2980    -0.9980    -0.8680 n          1 G3N      -0.333000
     28 C6          -1.5620    -0.8080     0.2600 cc         1 G3N       0.019600
     29 C7          -1.2750    -1.7980     1.1260 cd         1 G3N      -0.382200
     30 C8          -1.7520    -3.1330     0.8710 c          1 G3N       0.587200
     31 O4          -1.5660    -4.1110     1.5710 o          1 G3N      -0.566000
     32 N3          -2.4780    -3.2400    -0.3080 ns         1 G3N      -0.474500
     33 C9          -2.7910    -2.2450    -1.1930 c          1 G3N       0.609000
     34 O6          -3.4540    -2.4430    -2.1910 o          1 G3N      -0.605000
     35 H2           3.5180     0.4880     0.6060 h2         1 G3N       0.060700
     36 H3           5.5130    -0.9310     0.8000 h1         1 G3N       0.041700
     37 H4           5.2750    -2.4830     1.6090 h1         1 G3N       0.041700
     38 H5           3.9130    -3.2890    -0.2900 h1         1 G3N       0.041700
     39 H6           6.2260    -3.6310    -0.4620 hn         1 G3N       0.374000
     40 H7           5.7450    -3.1990    -1.9350 hn         1 G3N       0.374000
     41 H9           3.5800    -2.0050    -2.2900 h1         1 G3N       0.016700
     42 H10          4.2740     0.1990    -2.2670 ho         1 G3N       0.447000
     43 H11          2.1850    -0.1280    -1.2710 h1         1 G3N       0.065700
     44 H12          0.9590    -1.7780    -0.0400 ho         1 G3N       0.539000
     45 H14         -1.4890     2.4100     0.7750 h1         1 G3N       0.042200
     46 H15         -2.2760     3.9020     0.2710 h1         1 G3N       0.042200
     47 H16         -2.6440     2.9940    -1.9880 h1         1 G3N       0.072700
     48 H17         -3.6890     1.3920     0.3850 h1         1 G3N       0.069700
     49 H18         -5.5170     2.5290    -0.1160 ho         1 G3N       0.497000
     50 H19         -4.7090    -0.1450    -1.1740 h1         1 G3N       0.053700
     51 H20         -5.1590     1.7710    -2.6750 ho         1 G3N       0.510000
     52 H21         -2.4820    -0.2960    -2.8150 h2         1 G3N       0.105700
     53 H22         -1.1910     0.1900     0.4380 h4         1 G3N       0.276000
     54 H23         -0.6940    -1.5830     2.0090 ha         1 G3N       0.270000
     55 H24         -2.8400    -4.1560    -0.5420 hn         1 G3N       0.315500
@<TRIPOS>BOND
     1     1     2 1   
     2     2     3 1   
     3     2     4 1   
     4     2    14 1   
     5     4     5 1   
     6     5     6 1   
     7     5    12 1   
     8     5    35 1   
     9     6     7 1   
    10     7     8 1   
    11     7    36 1   
    12     7    37 1   
    13     8     9 1   
    14     8    10 1   
    15     8    38 1   
    16     9    39 1   
    17     9    40 1   
    18    10    11 1   
    19    10    12 1   
    20    10    41 1   
    21    11    42 1   
    22    12    13 1   
    23    12    43 1   
    24    13    44 1   
    25    14    15 1   
    26    15    16 1   
    27    15    17 1   
    28    15    18 1   
    29    18    19 1   
    30    19    20 1   
    31    19    45 1   
    32    19    46 1   
    33    20    21 1   
    34    20    25 1   
    35    20    47 1   
    36    21    22 1   
    37    21    23 1   
    38    21    48 1   
    39    22    49 1   
    40    23    24 1   
    41    23    26 1   
    42    23    50 1   
    43    24    51 1   
    44    25    26 1   
    45    26    27 1   
    46    26    52 1   
    47    27    28 1   
    48    27    33 1   
    49    28    29 2   
    50    28    53 1   
    51    29    30 1   
    52    29    54 1   
    53    30    31 2   
    54    30    32 1   
    55    32    33 1   
    56    32    55 1   
    57    33    34 2   
@<TRIPOS>SUBSTRUCTURE
     1 G3N         1 TEMP              0 ****  ****    0 ROOT
