@<TRIPOS>MOLECULE
G3N
   55    57     1     0     0
SMALL
No Charge or Current Charge


@<TRIPOS>ATOM
      1 O2B          0.4630     2.2470     2.9370 o          1 G3N      -0.840500
      2 PB           1.3490     1.8840     1.7940 p5         1 G3N       1.474800
      3 O1B          2.7390     2.4010     1.9410 o          1 G3N      -0.840500
      4 O3B          1.3740     0.2880     1.6590 os         1 G3N      -0.597400
      5 C1           2.4470    -0.3580     0.9660 c6         1 G3N       0.440300
      6 O5           2.1020    -1.7580     0.9370 os         1 G3N      -0.462000
      7 C5           3.1410    -2.6050     0.4130 c6         1 G3N       0.180600
      8 C4           3.4670    -2.2430    -1.0720 c6         1 G3N       0.121500
      9 N4           4.6440    -3.0260    -1.5710 n8         1 G3N      -0.981200
     10 C3           3.7600    -0.7160    -1.2040 c6         1 G3N       0.174300
     11 O3           5.0630    -0.4920    -0.6550 oh         1 G3N      -0.651000
     12 C2           2.6700     0.1610    -0.5100 c6         1 G3N       0.090300
     13 O2           1.4400     0.1570    -1.2800 oh         1 G3N      -0.752000
     14 O3A          0.6740     2.1490     0.3960 os         1 G3N      -0.736800
     15 PA           0.7270     3.6700    -0.0100 p5         1 G3N       1.461800
     16 O1A          2.0140     4.0220    -0.6780 o          1 G3N      -0.839000
     17 O2A          0.3490     4.6420     1.0560 o          1 G3N      -0.839000
     18 O5D         -0.4400     3.6090    -1.1210 os         1 G3N      -0.588400
     19 C5D         -1.8080     3.4260    -0.7120 c3         1 G3N       0.224600
     20 C4D         -2.3690     2.0800    -1.2630 c5         1 G3N       0.157300
     21 C3D         -3.5960     1.5060    -0.4890 c5         1 G3N       0.080300
     22 O3D         -4.8300     2.2100    -0.7410 oh         1 G3N      -0.709000
     23 C2D         -3.6540     0.0560    -1.0690 c5         1 G3N       0.090300
     24 O2D         -4.4980     0.0910    -2.2270 oh         1 G3N      -0.710000
     25 O4D         -1.4170     1.0030    -1.1650 os         1 G3N      -0.407000
     26 C1D         -2.1360    -0.2190    -1.4130 c5         1 G3N       0.343700
     27 N1          -1.6240    -1.3080    -0.5370 n          1 G3N      -0.333000
     28 C6          -1.5170    -1.1170     0.8440 cc         1 G3N       0.019600
     29 C7          -1.1220    -2.1740     1.6330 cd         1 G3N      -0.382200
     30 C8          -0.7920    -3.4810     1.0690 c          1 G3N       0.587200
     31 O4          -0.4370    -4.4410     1.7290 o          1 G3N      -0.566000
     32 N3          -0.9310    -3.5380    -0.2810 ns         1 G3N      -0.474500
     33 C9          -1.3270    -2.5500    -1.1280 c          1 G3N       0.609000
     34 O6          -1.4250    -2.7710    -2.3250 o          1 G3N      -0.605000
     35 H2           3.3790    -0.2230     1.5390 h2         1 G3N       0.060700
     36 H3           4.0380    -2.4980     1.0410 h1         1 G3N       0.041700
     37 H4           2.8080    -3.6510     0.4770 h1         1 G3N       0.041700
     38 H5           2.5980    -2.5030    -1.6940 h1         1 G3N       0.041700
     39 H6           4.4540    -4.0290    -1.4490 hn         1 G3N       0.374000
     40 H7           4.7040    -2.9210    -2.5910 hn         1 G3N       0.374000
     41 H9           3.7820    -0.4600    -2.2730 h1         1 G3N       0.016700
     42 H10          5.5040    -1.3600    -0.8300 ho         1 G3N       0.447000
     43 H11          3.0680     1.1840    -0.4630 h1         1 G3N       0.065700
     44 H12          0.8270     0.7700    -0.7810 ho         1 G3N       0.539000
     45 H14         -1.8980     3.4160     0.3830 h1         1 G3N       0.042200
     46 H15         -2.4330     4.2490    -1.0830 h1         1 G3N       0.042200
     47 H16         -2.6100     2.2250    -2.3250 h1         1 G3N       0.072700
     48 H17         -3.3830     1.4730     0.5900 h1         1 G3N       0.069700
     49 H18         -4.9490     2.8800    -0.0250 ho         1 G3N       0.497000
     50 H19         -4.0490    -0.6540    -0.3300 h1         1 G3N       0.053700
     51 H20         -5.0230     0.9200    -2.0660 ho         1 G3N       0.510000
     52 H21         -2.0230    -0.5170    -2.4620 h2         1 G3N       0.105700
     53 H22         -1.7310    -0.1050     1.1840 h4         1 G3N       0.276000
     54 H23         -0.9980    -2.0910     2.7060 ha         1 G3N       0.270000
     55 H24         -0.7190    -4.4240    -0.7090 hn         1 G3N       0.315500
@<TRIPOS>BOND
     1     1     2 1   
     2     2     3 1   
     3     2     4 1   
     4     2    14 1   
     5     4     5 1   
     6     5     6 1   
     7     5    12 1   
     8     5    35 1   
     9     6     7 1   
    10     7     8 1   
    11     7    36 1   
    12     7    37 1   
    13     8     9 1   
    14     8    10 1   
    15     8    38 1   
    16     9    39 1   
    17     9    40 1   
    18    10    11 1   
    19    10    12 1   
    20    10    41 1   
    21    11    42 1   
    22    12    13 1   
    23    12    43 1   
    24    13    44 1   
    25    14    15 1   
    26    15    16 1   
    27    15    17 1   
    28    15    18 1   
    29    18    19 1   
    30    19    20 1   
    31    19    45 1   
    32    19    46 1   
    33    20    21 1   
    34    20    25 1   
    35    20    47 1   
    36    21    22 1   
    37    21    23 1   
    38    21    48 1   
    39    22    49 1   
    40    23    24 1   
    41    23    26 1   
    42    23    50 1   
    43    24    51 1   
    44    25    26 1   
    45    26    27 1   
    46    26    52 1   
    47    27    28 1   
    48    27    33 1   
    49    28    29 2   
    50    28    53 1   
    51    29    30 1   
    52    29    54 1   
    53    30    31 2   
    54    30    32 1   
    55    32    33 1   
    56    32    55 1   
    57    33    34 2   
@<TRIPOS>SUBSTRUCTURE
     1 G3N         1 TEMP              0 ****  ****    0 ROOT
