@<TRIPOS>MOLECULE
G3O
   51    55     1     0     0
SMALL
No Charge or Current Charge


@<TRIPOS>ATOM
      1 C10         20.7840    14.4680     8.9830 c6         1 G3O       0.228600
      2 N12         20.7280    12.0560     9.9730 n8         1 G3O      -0.983200
      3 C13         24.1200    15.8700    10.1270 c6         1 G3O      -0.034000
      4 C15         26.4220    17.0050    10.3160 c6         1 G3O      -0.059700
      5 C17         25.3570    15.9690    12.3800 c6         1 G3O      -0.059700
      6 C20         26.2530    14.4810    10.5260 c6         1 G3O      -0.059700
      7 C21         24.8630    14.5200     9.8300 c6         1 G3O      -0.062733
      8 C22         27.1260    15.6560    10.0020 c6         1 G3O      -0.068400
      9 C01         19.6870    18.1790     8.6950 ca         1 G3O       0.039100
     10 C02         18.3820    18.0360     8.1860 ca         1 G3O       0.128100
     11 C03         17.8610    16.7660     7.9190 ca         1 G3O      -0.126000
     12 C04         18.6360    15.6240     8.1760 ca         1 G3O      -0.096000
     13 C05         19.9410    15.7400     8.7080 ca         1 G3O      -0.120300
     14 C06         20.4810    17.0330     8.9440 ca         1 G3O      -0.098300
     15 C07         21.9160    17.1810     9.4740 c6         1 G3O      -0.067100
     16 C08         22.7330    15.8630     9.3780 c6         1 G3O       0.183300
     17 C11         19.9700    13.3070     9.6700 c3         1 G3O       0.155800
     18 C14         25.0310    17.0410     9.6180 c6         1 G3O      -0.062733
     19 C16         26.2300    17.1440    11.8540 c6         1 G3O      -0.068400
     20 C18         23.9640    16.0060    11.6840 c6         1 G3O      -0.062733
     21 C19         26.0620    14.6200    12.0630 c6         1 G3O      -0.068400
     22 O09         21.9040    14.7830     9.8430 os         1 G3O      -0.430000
     23 O23         17.6330    19.1500     7.9460 oh         1 G3O      -0.533100
     24 O24         20.1650    19.4420     8.9440 oh         1 G3O      -0.565100
     25 H1          21.1750    14.0960     8.0250 h1         1 G3O       0.037700
     26 H2          20.0750    11.3440    10.3210 hn         1 G3O       0.391000
     27 H3          21.0820    11.6570     9.0970 hn         1 G3O       0.391000
     28 H5          27.0400    17.8360     9.9470 hc         1 G3O       0.047700
     29 H6          25.2260    16.0670    13.4670 hc         1 G3O       0.047700
     30 H7          26.7500    13.5270    10.3030 hc         1 G3O       0.047700
     31 H8          24.2630    13.6670    10.1720 hc         1 G3O       0.044367
     32 H9          24.9890    14.3880     8.7460 hc         1 G3O       0.044367
     33 H10         28.1200    15.6280    10.4690 hc         1 G3O       0.039033
     34 H11         27.2880    15.5550     8.9200 hc         1 G3O       0.039033
     35 H12         16.8570    16.6640     7.5150 ha         1 G3O       0.131000
     36 H13         18.2120    14.6500     7.9480 ha         1 G3O       0.115000
     37 H14         22.4370    17.9580     8.9010 hc         1 G3O       0.055700
     38 H15         21.8690    17.5280    10.5130 hc         1 G3O       0.055700
     39 H16         22.9410    15.6830     8.3120 h1         1 G3O       0.035700
     40 H17         19.5420    13.6900    10.6070 h1         1 G3O       0.039200
     41 H18         19.1370    13.0250     9.0140 h1         1 G3O       0.039200
     42 H19         25.1590    16.9780     8.5280 hc         1 G3O       0.044367
     43 H20         24.5620    18.0140     9.8180 hc         1 G3O       0.044367
     44 H21         27.2060    17.1470    12.3590 hc         1 G3O       0.039033
     45 H22         25.7560    18.1060    12.0920 hc         1 G3O       0.039033
     46 H23         23.4620    16.9450    11.9490 hc         1 G3O       0.044367
     47 H24         23.3330    15.1980    12.0790 hc         1 G3O       0.044367
     48 H25         25.4660    13.7810    12.4490 hc         1 G3O       0.039033
     49 H26         27.0340    14.5700    12.5730 hc         1 G3O       0.039033
     50 H27         18.2030    19.9100     8.2020 ho         1 G3O       0.481000
     51 H28         21.0580    19.3690     9.3430 ho         1 G3O       0.474000
@<TRIPOS>BOND
     1     1    13 1   
     2     1    17 1   
     3     1    22 1   
     4     1    25 1   
     5     2    17 1   
     6     2    26 1   
     7     2    27 1   
     8     3     7 1   
     9     3    16 1   
    10     3    18 1   
    11     3    20 1   
    12     4     8 1   
    13     4    18 1   
    14     4    19 1   
    15     4    28 1   
    16     5    19 1   
    17     5    20 1   
    18     5    21 1   
    19     5    29 1   
    20     6     7 1   
    21     6     8 1   
    22     6    21 1   
    23     6    30 1   
    24     7    31 1   
    25     7    32 1   
    26     8    33 1   
    27     8    34 1   
    28     9    10 ar  
    29     9    14 ar  
    30     9    24 1   
    31    10    11 ar  
    32    10    23 1   
    33    11    12 ar  
    34    11    35 1   
    35    12    13 ar  
    36    12    36 1   
    37    13    14 ar  
    38    14    15 1   
    39    15    16 1   
    40    15    37 1   
    41    15    38 1   
    42    16    22 1   
    43    16    39 1   
    44    17    40 1   
    45    17    41 1   
    46    18    42 1   
    47    18    43 1   
    48    19    44 1   
    49    19    45 1   
    50    20    46 1   
    51    20    47 1   
    52    21    48 1   
    53    21    49 1   
    54    23    50 1   
    55    24    51 1   
@<TRIPOS>SUBSTRUCTURE
     1 G3O         1 TEMP              0 ****  ****    0 ROOT
