@<TRIPOS>MOLECULE
G3O
   51    55     1     0     0
SMALL
bcc


@<TRIPOS>ATOM
      1 C10         20.8540    14.4930     9.0520 c6         1 G3O       0.205400
      2 N12         20.8550    12.2190     9.9830 n8         1 G3O      -0.872800
      3 C13         24.0790    15.8510    10.1270 c6         1 G3O      -0.034000
      4 C15         26.3290    16.9790    10.3130 c6         1 G3O      -0.059700
      5 C17         25.3040    15.9130    12.3240 c6         1 G3O      -0.059700
      6 C20         26.1830    14.4960    10.4680 c6         1 G3O      -0.059700
      7 C21         24.8090    14.5380     9.7950 c6         1 G3O      -0.062733
      8 C22         27.0320    15.6660     9.9700 c6         1 G3O      -0.068400
      9 C01         19.7680    18.1150     8.7060 ca         1 G3O       0.039100
     10 C02         18.4990    17.9930     8.1340 ca         1 G3O       0.128100
     11 C03         18.0170    16.7300     7.8320 ca         1 G3O      -0.144000
     12 C04         18.7750    15.6070     8.1260 ca         1 G3O      -0.114000
     13 C05         20.0260    15.7190     8.7240 ca         1 G3O      -0.120300
     14 C06         20.5430    16.9910     8.9860 ca         1 G3O      -0.098300
     15 C07         21.9400    17.1740     9.5190 c6         1 G3O      -0.067100
     16 C08         22.7300    15.8770     9.3960 c6         1 G3O       0.160100
     17 C11         20.0510    13.4110     9.7680 c3         1 G3O       0.155800
     18 C14         24.9530    17.0190     9.6440 c6         1 G3O      -0.062733
     19 C16         26.1510    17.0860    11.8280 c6         1 G3O      -0.068400
     20 C18         23.9290    15.9470    11.6530 c6         1 G3O      -0.062733
     21 C19         26.0080    14.5980    11.9830 c6         1 G3O      -0.068400
     22 O09         21.9370    14.8200     9.8820 os         1 G3O      -0.383600
     23 O23         17.7410    19.0750     7.8550 oh         1 G3O      -0.494100
     24 O24         20.1880    19.3870     8.9320 oh         1 G3O      -0.526100
     25 H1          21.2310    14.0680     8.1040 h1         1 G3O       0.037700
     26 H2          20.3370    11.5690    10.5600 hn         1 G3O       0.335800
     27 H3          20.9940    11.7450     9.0990 hn         1 G3O       0.335800
     28 H5          26.9250    17.8220     9.9510 hc         1 G3O       0.047700
     29 H6          25.1720    15.9880    13.4080 hc         1 G3O       0.047700
     30 H7          26.6740    13.5510    10.2170 hc         1 G3O       0.047700
     31 H8          24.2110    13.6820    10.1190 hc         1 G3O       0.044367
     32 H9          24.9270    14.4500     8.7090 hc         1 G3O       0.044367
     33 H10         28.0240    15.6370    10.4310 hc         1 G3O       0.039033
     34 H11         27.1820    15.5890     8.8890 hc         1 G3O       0.039033
     35 H12         17.0390    16.6280     7.3770 ha         1 G3O       0.149000
     36 H13         18.3710    14.6340     7.8770 ha         1 G3O       0.133000
     37 H14         22.4490    17.9570     8.9510 hc         1 G3O       0.055700
     38 H15         21.9130    17.5100    10.5610 hc         1 G3O       0.055700
     39 H16         22.9390    15.7150     8.3230 h1         1 G3O       0.035700
     40 H17         19.7320    13.8030    10.7370 h1         1 G3O       0.039200
     41 H18         19.1360    13.2120     9.1980 h1         1 G3O       0.039200
     42 H19         25.0650    16.9730     8.5550 hc         1 G3O       0.044367
     43 H20         24.4760    17.9770     9.8750 hc         1 G3O       0.044367
     44 H21         27.1260    17.0850    12.3270 hc         1 G3O       0.039033
     45 H22         25.6670    18.0340    12.0840 hc         1 G3O       0.039033
     46 H23         23.4150    16.8720    11.9330 hc         1 G3O       0.044367
     47 H24         23.3190    15.1200    12.0270 hc         1 G3O       0.044367
     48 H25         25.4220    13.7500    12.3530 hc         1 G3O       0.039033
     49 H26         26.9810    14.5510    12.4830 hc         1 G3O       0.039033
     50 H27         18.1760    19.8760     8.1720 ho         1 G3O       0.442000
     51 H28         20.8900    19.4180     9.5900 ho         1 G3O       0.435000
@<TRIPOS>BOND
     1     1    13 1   
     2     1    17 1   
     3     1    22 1   
     4     1    25 1   
     5     2    17 1   
     6     2    26 1   
     7     2    27 1   
     8     3     7 1   
     9     3    16 1   
    10     3    18 1   
    11     3    20 1   
    12     4     8 1   
    13     4    18 1   
    14     4    19 1   
    15     4    28 1   
    16     5    19 1   
    17     5    20 1   
    18     5    21 1   
    19     5    29 1   
    20     6     7 1   
    21     6     8 1   
    22     6    21 1   
    23     6    30 1   
    24     7    31 1   
    25     7    32 1   
    26     8    33 1   
    27     8    34 1   
    28     9    10 ar  
    29     9    14 ar  
    30     9    24 1   
    31    10    11 ar  
    32    10    23 1   
    33    11    12 ar  
    34    11    35 1   
    35    12    13 ar  
    36    12    36 1   
    37    13    14 ar  
    38    14    15 1   
    39    15    16 1   
    40    15    37 1   
    41    15    38 1   
    42    16    22 1   
    43    16    39 1   
    44    17    40 1   
    45    17    41 1   
    46    18    42 1   
    47    18    43 1   
    48    19    44 1   
    49    19    45 1   
    50    20    46 1   
    51    20    47 1   
    52    21    48 1   
    53    21    49 1   
    54    23    50 1   
    55    24    51 1   
@<TRIPOS>SUBSTRUCTURE
     1 G3O         1 TEMP              0 ****  ****    0 ROOT
