@<TRIPOS>MOLECULE
G3P
   17    16     1     0     0
SMALL
No Charge or Current Charge


@<TRIPOS>ATOM
      1 O1          23.4100    41.3470    10.3040 oh         1 G3P      -0.661000
      2 C1          23.9070    42.5230     9.6380 c3         1 G3P       0.151600
      3 C2          23.5530    43.8270    10.4180 c3         1 G3P       0.147300
      4 O2          24.2090    43.8600    11.7050 oh         1 G3P      -0.706000
      5 C3          23.9060    45.0980     9.5700 c3         1 G3P       0.220600
      6 O1P         23.8320    46.3460    10.3020 os         1 G3P      -0.591400
      7 O4P         22.8270    48.1520    11.7370 o          1 G3P      -0.923500
      8 O2P         21.3570    46.4420    10.8390 o          1 G3P      -0.923500
      9 O3P         22.9450    45.8930    12.6190 o          1 G3P      -0.923500
     10 P           22.7090    46.7090    11.3970 p5         1 G3P       1.274900
     11 HO1         23.7270    40.5740     9.7890 ho         1 G3P       0.400000
     12 H11         24.9970    42.4590     9.5160 h1         1 G3P       0.011700
     13 H12         23.4700    42.5860     8.6320 h1         1 G3P       0.011700
     14 H2          22.4650    43.8260    10.5680 h1         1 G3P       0.034700
     15 HO2         23.7790    44.6570    12.1580 ho         1 G3P       0.481000
     16 H31         24.9220    44.9780     9.1720 h1         1 G3P      -0.002300
     17 H32         23.2320    45.1380     8.7040 h1         1 G3P      -0.002300
@<TRIPOS>BOND
     1     1     2 1   
     2     1    11 1   
     3     2     3 1   
     4     2    12 1   
     5     2    13 1   
     6     3     4 1   
     7     3     5 1   
     8     3    14 1   
     9     4    15 1   
    10     5     6 1   
    11     5    16 1   
    12     5    17 1   
    13     6    10 1   
    14     7    10 1   
    15     8    10 1   
    16     9    10 1   
@<TRIPOS>SUBSTRUCTURE
     1 G3P         1 TEMP              0 ****  ****    0 ROOT
