@<TRIPOS>MOLECULE
G3P
   17    16     1     0     0
SMALL
bcc


@<TRIPOS>ATOM
      1 O1          24.1800    41.2130    10.1780 oh         1 G3P      -0.598800
      2 C1          23.9050    42.4770     9.6160 c3         1 G3P       0.128400
      3 C2          23.8350    43.5170    10.7100 c3         1 G3P       0.124100
      4 O2          25.1060    43.6420    11.3120 oh         1 G3P      -0.643800
      5 C3          23.3660    44.8550    10.1550 c3         1 G3P       0.197400
      6 O1P         23.4420    45.8040    11.1740 os         1 G3P      -0.568200
      7 O4P         22.8770    47.9890    12.2570 o          1 G3P      -0.923500
      8 O2P         22.7560    47.7830     9.6880 o          1 G3P      -0.923500
      9 O3P         21.0040    46.6140    11.1510 o          1 G3P      -0.923500
     10 P           22.4150    47.1860    11.0500 p5         1 G3P       1.274900
     11 HO1         24.2360    40.5760     9.4610 ho         1 G3P       0.361000
     12 H11         24.6730    42.7720     8.8870 h1         1 G3P       0.011700
     13 H12         22.9440    42.4800     9.0840 h1         1 G3P       0.011700
     14 H2          23.0910    43.1840    11.4540 h1         1 G3P       0.034700
     15 HO2         25.0790    44.4590    11.8240 ho         1 G3P       0.442000
     16 H31         23.9940    45.1310     9.2930 h1         1 G3P      -0.002300
     17 H32         22.3430    44.7330     9.7730 h1         1 G3P      -0.002300
@<TRIPOS>BOND
     1     1     2 1   
     2     1    11 1   
     3     2     3 1   
     4     2    12 1   
     5     2    13 1   
     6     3     4 1   
     7     3     5 1   
     8     3    14 1   
     9     4    15 1   
    10     5     6 1   
    11     5    16 1   
    12     5    17 1   
    13     6    10 1   
    14     7    10 1   
    15     8    10 1   
    16     9    10 1   
@<TRIPOS>SUBSTRUCTURE
     1 G3P         1 TEMP              0 ****  ****    0 ROOT
