@<TRIPOS>MOLECULE
G3Q
   59    60     1     0     0
SMALL
abcg2


@<TRIPOS>ATOM
      1 C10          4.6970     0.5720    -0.1690 c3         1 G3Q       0.159300
      2 N12          7.0150    -0.1530     0.0630 n7         1 G3Q      -0.861400
      3 C13          8.0480    -1.1780     0.2530 c3         1 G3Q       0.190200
      4 C15          7.9810    -2.2950    -0.7960 c3         1 G3Q      -0.096433
      5 C21         -6.3380    -0.6760     0.1810 c6         1 G3Q       0.123700
      6 C22         -7.4810    -0.4580     1.1690 c6         1 G3Q      -0.091900
      7 C24         -9.1350    -1.2550    -0.5580 c6         1 G3Q      -0.077400
      8 C26         -6.8280    -0.5300    -1.2600 c6         1 G3Q      -0.091900
      9 C02         -3.9540    -0.0600     0.2290 c          1 G3Q       0.659100
     10 C04         -1.7050     0.9650     0.2960 ca         1 G3Q      -0.046000
     11 C05         -1.0790     2.1510    -0.0910 ca         1 G3Q      -0.103500
     12 C06          0.2940     2.2240    -0.2310 ca         1 G3Q      -0.148500
     13 C07          1.0870     1.1000    -0.0040 ca         1 G3Q       0.119100
     14 C09          3.2580     0.1420     0.0550 c3         1 G3Q       0.129600
     15 C11          5.6370    -0.5900     0.1380 c3         1 G3Q       0.132800
     16 C14          9.3930    -0.4630     0.1290 c3         1 G3Q      -0.096433
     17 C16          7.9260    -1.7780     1.6530 c3         1 G3Q      -0.096433
     18 C18          0.4710    -0.0880     0.3740 ca         1 G3Q      -0.148500
     19 C19         -0.9090    -0.1510     0.5320 ca         1 G3Q      -0.103500
     20 C23         -8.6480    -1.3970     0.8800 c6         1 G3Q      -0.071400
     21 C25         -7.9940    -1.4720    -1.5450 c6         1 G3Q      -0.071400
     22 N20         -5.2510     0.2310     0.4880 ns         1 G3Q      -0.521900
     23 O01         -3.5780    -1.1560    -0.1670 o          1 G3Q      -0.629100
     24 O08          2.4190     1.2570    -0.1640 os         1 G3Q      -0.331100
     25 O17          4.9010     1.0940    -1.4640 oh         1 G3Q      -0.640000
     26 H1           4.9300     1.3900     0.5190 h1         1 G3Q       0.101700
     27 H2           7.1640     0.2730    -0.8460 hn         1 G3Q       0.421000
     28 H4           8.0490    -1.8820    -1.8060 hc         1 G3Q       0.037478
     29 H5           8.8080    -2.9950    -0.6690 hc         1 G3Q       0.037478
     30 H6           7.0560    -2.8690    -0.7310 hc         1 G3Q       0.037478
     31 H7          -5.9630    -1.6950     0.3170 h1         1 G3Q       0.081700
     32 H8          -7.1170    -0.6040     2.1890 hc         1 G3Q       0.044700
     33 H9          -7.8290     0.5800     1.0990 hc         1 G3Q       0.044700
     34 H10         -9.9470    -1.9600    -0.7540 hc         1 G3Q       0.039700
     35 H11         -9.5490    -0.2510    -0.7000 hc         1 G3Q       0.039700
     36 H12         -7.1410     0.5070    -1.4250 hc         1 G3Q       0.044700
     37 H13         -6.0020    -0.7250    -1.9490 hc         1 G3Q       0.044700
     38 H14         -1.6760     3.0350    -0.2860 ha         1 G3Q       0.124500
     39 H15          0.7570     3.1570    -0.5280 ha         1 G3Q       0.122500
     40 H16          2.9950    -0.6790    -0.6250 h1         1 G3Q       0.036200
     41 H17          3.1480    -0.2320     1.0800 h1         1 G3Q       0.036200
     42 H18          5.4220    -0.9420     1.1500 h1         1 G3Q       0.031700
     43 H19          5.3940    -1.4270    -0.5380 h1         1 G3Q       0.031700
     44 H20          9.4910     0.3220     0.8810 hc         1 G3Q       0.037478
     45 H21         10.2210    -1.1610     0.2540 hc         1 G3Q       0.037478
     46 H22          9.5010    -0.0000    -0.8560 hc         1 G3Q       0.037478
     47 H23          7.0050    -2.3510     1.7760 hc         1 G3Q       0.037478
     48 H24          8.7550    -2.4600     1.8470 hc         1 G3Q       0.037478
     49 H25          7.9440    -0.9960     2.4140 hc         1 G3Q       0.037478
     50 H26          1.0440    -0.9840     0.5690 ha         1 G3Q       0.122500
     51 H27         -1.3480    -1.0830     0.8550 ha         1 G3Q       0.124500
     52 H28         -8.3330    -2.4310     1.0570 hc         1 G3Q       0.043200
     53 H29         -9.4620    -1.1990     1.5810 hc         1 G3Q       0.043200
     54 H30         -7.6460    -2.5090    -1.4760 hc         1 G3Q       0.043200
     55 H31         -8.3440    -1.3310    -2.5700 hc         1 G3Q       0.043200
     56 H32         -3.4950     1.8870     0.6570 hn         1 G3Q       0.142000
     57 H33         -5.5040     1.1760     0.7300 hn         1 G3Q       0.301500
     58 H34          4.7110     0.4020    -2.1080 ho         1 G3Q       0.434000
     59 N03         -3.0930     0.9790     0.4830 ns         1 G3Q      -0.169000
@<TRIPOS>BOND
     1     1    14 1   
     2     1    15 1   
     3     1    25 1   
     4     1    26 1   
     5     2     3 1   
     6     2    15 1   
     7     2    27 1   
     8     3     4 1   
     9     3    16 1   
    10     3    17 1   
    11     4    28 1   
    12     4    29 1   
    13     4    30 1   
    14     5     6 1   
    15     5     8 1   
    16     5    22 1   
    17     5    31 1   
    18     6    20 1   
    19     6    32 1   
    20     6    33 1   
    21     7    20 1   
    22     7    21 1   
    23     7    34 1   
    24     7    35 1   
    25     8    21 1   
    26     8    36 1   
    27     8    37 1   
    28     9    22 1   
    29     9    23 2   
    30     9    59 1   
    31    10    11 ar  
    32    10    19 ar  
    33    10    59 1   
    34    11    12 ar  
    35    11    38 1   
    36    12    13 ar  
    37    12    39 1   
    38    13    18 ar  
    39    13    24 1   
    40    14    24 1   
    41    14    40 1   
    42    14    41 1   
    43    15    42 1   
    44    15    43 1   
    45    16    44 1   
    46    16    45 1   
    47    16    46 1   
    48    17    47 1   
    49    17    48 1   
    50    17    49 1   
    51    18    19 ar  
    52    18    50 1   
    53    19    51 1   
    54    20    52 1   
    55    20    53 1   
    56    21    54 1   
    57    21    55 1   
    58    22    57 1   
    59    25    58 1   
    60    56    59 1   
@<TRIPOS>SUBSTRUCTURE
     1 G3Q         1 TEMP              0 ****  ****    0 ROOT
