@<TRIPOS>MOLECULE
G3Q
   59    60     1     0     0
SMALL
No Charge or Current Charge


@<TRIPOS>ATOM
      1 C10          4.8110     0.4650     0.2370 c3         1 G3Q       0.159300
      2 N12          7.2330    -0.1770     0.2640 n7         1 G3Q      -0.861400
      3 C13          8.3590    -1.1310     0.1460 c3         1 G3Q       0.190200
      4 C15          8.3020    -1.8500    -1.2260 c3         1 G3Q      -0.096433
      5 C21         -6.5920    -0.6000     0.2460 c6         1 G3Q       0.123700
      6 C22         -7.7920     0.2450     0.7450 c6         1 G3Q      -0.091900
      7 C24         -9.4080    -1.2010    -0.6060 c6         1 G3Q      -0.077400
      8 C26         -6.9120    -1.1890    -1.1540 c6         1 G3Q      -0.091900
      9 C02         -4.0910    -0.2380     0.2500 c          1 G3Q       0.659100
     10 C04         -1.7350     0.7850     0.1600 ca         1 G3Q      -0.046000
     11 C05         -1.0850     2.0290     0.0510 ca         1 G3Q      -0.103500
     12 C06          0.3190     2.1060     0.0530 ca         1 G3Q      -0.148500
     13 C07          1.0940     0.9430     0.1620 ca         1 G3Q       0.119100
     14 C09          3.3530    -0.0540     0.2700 c3         1 G3Q       0.129600
     15 C11          5.8410    -0.6990     0.2810 c3         1 G3Q       0.132800
     16 C14          9.6540    -0.2910     0.2370 c3         1 G3Q      -0.096433
     17 C16          8.3180    -2.1550     1.3090 c3         1 G3Q      -0.096433
     18 C18          0.4530    -0.3090     0.2710 ca         1 G3Q      -0.148500
     19 C19         -0.9520    -0.3870     0.2700 ca         1 G3Q      -0.103500
     20 C23         -9.0970    -0.5900     0.7820 c6         1 G3Q      -0.071400
     21 C25         -8.2120    -2.0320    -1.1310 c6         1 G3Q      -0.071400
     22 N20         -5.3830     0.2290     0.1910 ns         1 G3Q      -0.521900
     23 O01         -3.8330    -1.4260     0.3770 o          1 G3Q      -0.629100
     24 O08          2.4680     1.0790     0.1580 os         1 G3Q      -0.331100
     25 O17          5.0190     1.2720    -0.9450 oh         1 G3Q      -0.640000
     26 H1           4.9630     1.0750     1.1390 h1         1 G3Q       0.101700
     27 H2           7.2880     0.4790    -0.5250 hn         1 G3Q       0.421000
     28 H4           8.2500    -1.1270    -2.0490 hc         1 G3Q       0.037478
     29 H5           9.1990    -2.4650    -1.3750 hc         1 G3Q       0.037478
     30 H6           7.4350    -2.5160    -1.2980 hc         1 G3Q       0.037478
     31 H7          -6.4210    -1.4260     0.9530 h1         1 G3Q       0.081700
     32 H8          -7.5790     0.6360     1.7500 hc         1 G3Q       0.044700
     33 H9          -7.9350     1.1180     0.0930 hc         1 G3Q       0.044700
     34 H10        -10.3040    -1.8330    -0.5440 hc         1 G3Q       0.039700
     35 H11         -9.6410    -0.3980    -1.3190 hc         1 G3Q       0.039700
     36 H12         -7.0140    -0.3760    -1.8870 hc         1 G3Q       0.044700
     37 H13         -6.0770    -1.8140    -1.4970 hc         1 G3Q       0.044700
     38 H14         -1.6690     2.9430    -0.0350 ha         1 G3Q       0.124500
     39 H15          0.8070     3.0740    -0.0320 ha         1 G3Q       0.122500
     40 H16          3.1930    -0.7530    -0.5610 h1         1 G3Q       0.036200
     41 H17          3.1800    -0.5880     1.2140 h1         1 G3Q       0.036200
     42 H18          5.6620    -1.2930     1.1870 h1         1 G3Q       0.031700
     43 H19          5.6550    -1.3490    -0.5840 h1         1 G3Q       0.031700
     44 H20          9.7090     0.2440     1.1940 hc         1 G3Q       0.037478
     45 H21         10.5410    -0.9320     0.1590 hc         1 G3Q       0.037478
     46 H22          9.7020     0.4500    -0.5700 hc         1 G3Q       0.037478
     47 H23          7.4440    -2.8130     1.2360 hc         1 G3Q       0.037478
     48 H24          9.2110    -2.7920     1.2930 hc         1 G3Q       0.037478
     49 H25          8.2840    -1.6460     2.2800 hc         1 G3Q       0.037478
     50 H26          1.0230    -1.2290     0.3570 ha         1 G3Q       0.122500
     51 H27         -1.4110    -1.3660     0.3550 ha         1 G3Q       0.124500
     52 H28         -9.0020    -1.3930     1.5270 hc         1 G3Q       0.043200
     53 H29         -9.9350     0.0400     1.1090 hc         1 G3Q       0.043200
     54 H30         -8.0680    -2.9160    -0.4940 hc         1 G3Q       0.043200
     55 H31         -8.4320    -2.4070    -2.1400 hc         1 G3Q       0.043200
     56 H32         -3.5630     1.7040     0.0540 hn         1 G3Q       0.142000
     57 H33         -5.4980     1.2290     0.0870 hn         1 G3Q       0.301500
     58 H34          4.2040     1.8120    -1.0460 ho         1 G3Q       0.434000
     59 N03         -3.1580     0.7830     0.1510 ns         1 G3Q      -0.169000
@<TRIPOS>BOND
     1     1    14 1   
     2     1    15 1   
     3     1    25 1   
     4     1    26 1   
     5     2     3 1   
     6     2    15 1   
     7     2    27 1   
     8     3     4 1   
     9     3    16 1   
    10     3    17 1   
    11     4    28 1   
    12     4    29 1   
    13     4    30 1   
    14     5     6 1   
    15     5     8 1   
    16     5    22 1   
    17     5    31 1   
    18     6    20 1   
    19     6    32 1   
    20     6    33 1   
    21     7    20 1   
    22     7    21 1   
    23     7    34 1   
    24     7    35 1   
    25     8    21 1   
    26     8    36 1   
    27     8    37 1   
    28     9    22 1   
    29     9    23 2   
    30     9    59 1   
    31    10    11 ar  
    32    10    19 ar  
    33    10    59 1   
    34    11    12 ar  
    35    11    38 1   
    36    12    13 ar  
    37    12    39 1   
    38    13    18 ar  
    39    13    24 1   
    40    14    24 1   
    41    14    40 1   
    42    14    41 1   
    43    15    42 1   
    44    15    43 1   
    45    16    44 1   
    46    16    45 1   
    47    16    46 1   
    48    17    47 1   
    49    17    48 1   
    50    17    49 1   
    51    18    19 ar  
    52    18    50 1   
    53    19    51 1   
    54    20    52 1   
    55    20    53 1   
    56    21    54 1   
    57    21    55 1   
    58    22    57 1   
    59    25    58 1   
    60    56    59 1   
@<TRIPOS>SUBSTRUCTURE
     1 G3Q         1 TEMP              0 ****  ****    0 ROOT
