@<TRIPOS>MOLECULE
G3R
   46    50     1     0     0
SMALL
No Charge or Current Charge


@<TRIPOS>ATOM
      1 O1           4.9070     5.2000    -1.1540 oh         1 G3R      -0.667000
      2 C2           5.9700     4.2980    -0.7780 c3         1 G3R       0.146600
      3 C3           5.4150     3.0210    -0.0830 c3         1 G3R       0.216800
      4 N4           4.3530     2.3800    -0.8890 nu         1 G3R      -0.954200
      5 C6           3.6090     1.2550    -0.5370 ca         1 G3R       0.358000
      6 C7           4.1330     0.2810     0.3240 ca         1 G3R      -0.195000
      7 C19          3.3660    -0.8440     0.6610 ca         1 G3R      -0.007000
      8 C8           2.3220     1.0990    -1.0640 ca         1 G3R      -0.190000
      9 C9           1.5360    -0.0170    -0.7410 ca         1 G3R       0.336000
     10 C18          2.0720    -0.9840     0.1270 ca         1 G3R      -0.139000
     11 N10          0.2480    -0.0890    -1.3160 nc         1 G3R      -0.701000
     12 C11         -0.4920    -1.1780    -0.9870 cd         1 G3R       0.589800
     13 N12         -0.0080    -2.1940    -0.1200 na         1 G3R       0.039900
     14 N13         -0.6180    -3.3530     0.3020 nc         1 G3R      -0.650100
     15 C17          1.2350    -2.1080     0.4280 cc         1 G3R       0.023000
     16 N16          1.4750    -3.1510     1.1910 nd         1 G3R      -0.445300
     17 C14          0.3130    -3.8530     1.0730 cd         1 G3R       0.734200
     18 N15          0.1190    -5.0140     1.6830 nv         1 G3R      -0.985200
     19 C20         -1.8810    -1.2700    -1.5730 c3         1 G3R      -0.075400
     20 C21         -2.9620    -0.6680    -0.6820 ca         1 G3R      -0.070300
     21 C22         -3.2130     0.7240    -0.7180 ca         1 G3R      -0.076000
     22 C23         -4.2090     1.2400     0.1200 ca         1 G3R       0.050100
     23 O24         -4.5690     2.5460     0.2150 os         1 G3R      -0.346100
     24 C25         -5.6760     2.5070     1.1860 c5         1 G3R       0.374600
     25 O26         -5.8320     1.1350     1.6950 os         1 G3R      -0.346100
     26 C27         -4.9270     0.4390     0.9610 ca         1 G3R       0.055100
     27 C28         -4.7030    -0.9410     1.0300 ca         1 G3R      -0.097000
     28 C29         -3.7090    -1.4950     0.1950 ca         1 G3R      -0.095000
     29 H1           5.3300     5.9840    -1.5710 ho         1 G3R       0.450000
     30 H21C         6.5360     3.9950    -1.6690 h1         1 G3R       0.033200
     31 H22C         6.6720     4.7960    -0.0950 h1         1 G3R       0.033200
     32 H31C         6.2470     2.3220     0.0790 h1         1 G3R       0.048200
     33 H32C         5.0180     3.3000     0.9030 h1         1 G3R       0.048200
     34 H4           3.8790     3.0250    -1.5260 hn         1 G3R       0.493000
     35 H7           5.1340     0.3840     0.7330 ha         1 G3R       0.117000
     36 H8           1.9190     1.8530    -1.7320 ha         1 G3R       0.134000
     37 H19          3.7730    -1.6000     1.3290 ha         1 G3R       0.133000
     38 H201        -1.8930    -0.7740    -2.5500 hc         1 G3R       0.083200
     39 H202        -2.1140    -2.3190    -1.7890 hc         1 G3R       0.083200
     40 H151        -0.6230    -5.5800     1.2940 hn         1 G3R       0.473000
     41 H152         0.9530    -5.5030     1.9790 hn         1 G3R       0.473000
     42 H22         -2.6500     1.3820    -1.3750 ha         1 G3R       0.133000
     43 H29         -3.5150    -2.5650     0.2330 ha         1 G3R       0.119000
     44 H251        -5.4580     3.1860     2.0190 h2         1 G3R       0.062700
     45 H252        -6.6030     2.8120     0.6850 h2         1 G3R       0.062700
     46 H28         -5.2790    -1.5660     1.7080 ha         1 G3R       0.133000
@<TRIPOS>BOND
     1     1     2 1   
     2     1    29 1   
     3     2     3 1   
     4     2    30 1   
     5     2    31 1   
     6     3     4 1   
     7     3    32 1   
     8     3    33 1   
     9     4     5 1   
    10     4    34 1   
    11     5     6 ar  
    12     5     8 ar  
    13     6     7 ar  
    14     6    35 1   
    15     7    10 ar  
    16     7    37 1   
    17     8     9 ar  
    18     8    36 1   
    19     9    10 ar  
    20     9    11 1   
    21    10    15 1   
    22    11    12 2   
    23    12    13 1   
    24    12    19 1   
    25    13    14 1   
    26    13    15 1   
    27    14    17 2   
    28    15    16 2   
    29    16    17 1   
    30    17    18 1   
    31    18    40 1   
    32    18    41 1   
    33    19    20 1   
    34    19    38 1   
    35    19    39 1   
    36    20    21 ar  
    37    20    28 ar  
    38    21    22 ar  
    39    21    42 1   
    40    22    23 1   
    41    22    26 ar  
    42    23    24 1   
    43    24    25 1   
    44    24    44 1   
    45    24    45 1   
    46    25    26 1   
    47    26    27 ar  
    48    27    28 ar  
    49    27    46 1   
    50    28    43 1   
@<TRIPOS>SUBSTRUCTURE
     1 G3R         1 TEMP              0 ****  ****    0 ROOT
