@<TRIPOS>MOLECULE
G3R
   46    50     1     0     0
SMALL
bcc


@<TRIPOS>ATOM
      1 O1           4.3860     5.1330     0.5920 oh         1 G3R      -0.604800
      2 C2           5.1320     4.3980    -0.3540 c3         1 G3R       0.123400
      3 C3           4.9380     2.9220    -0.0890 c3         1 G3R       0.216800
      4 N4           3.5460     2.5620    -0.2270 nu         1 G3R      -0.760600
      5 C6           3.0880     1.2830    -0.1650 ca         1 G3R       0.219600
      6 C7           3.9690     0.1740    -0.2410 ca         1 G3R      -0.213000
      7 C19          3.4840    -1.1080    -0.2210 ca         1 G3R      -0.025000
      8 C8           1.7190     1.0380    -0.0490 ca         1 G3R      -0.273300
      9 C9           1.2170    -0.2610    -0.0240 ca         1 G3R       0.466600
     10 C18          2.1090    -1.3520    -0.1160 ca         1 G3R      -0.204300
     11 N10         -0.1430    -0.4360     0.0920 nc         1 G3R      -0.701000
     12 C11         -0.6390    -1.6210     0.1130 cd         1 G3R       0.589800
     13 N12          0.1720    -2.7170     0.0210 na         1 G3R      -0.010800
     14 N13         -0.2250    -4.0120     0.0210 nc         1 G3R      -0.650100
     15 C17          1.5250    -2.6420    -0.0910 cc         1 G3R       0.073700
     16 N16          2.0280    -3.8550    -0.1570 nd         1 G3R      -0.445300
     17 C14          0.9270    -4.6470    -0.0850 cd         1 G3R       0.734200
     18 N15          1.0270    -6.0000    -0.0690 nv         1 G3R      -0.874800
     19 C20         -2.1090    -1.8830     0.2390 c3         1 G3R      -0.075400
     20 C21         -2.9220    -0.6290     0.3640 ca         1 G3R      -0.070300
     21 C22         -3.2600     0.0900    -0.7930 ca         1 G3R      -0.094000
     22 C23         -3.9920     1.2380    -0.6310 ca         1 G3R       0.050100
     23 O24         -4.4590     2.0840    -1.5810 os         1 G3R      -0.322900
     24 C25         -5.0040     3.1990    -0.8870 c5         1 G3R       0.328200
     25 O26         -5.1210     2.8200     0.4780 os         1 G3R      -0.322900
     26 C27         -4.3930     1.6850     0.6190 ca         1 G3R       0.055100
     27 C28         -4.0760     0.9990     1.7640 ca         1 G3R      -0.115000
     28 C29         -3.3270    -0.1750     1.6090 ca         1 G3R      -0.113000
     29 H1           4.3590     6.0520     0.3090 ho         1 G3R       0.411000
     30 H21C         4.8130     4.6220    -1.3790 h1         1 G3R       0.033200
     31 H22C         6.2040     4.6180    -0.2900 h1         1 G3R       0.033200
     32 H31C         5.5410     2.3810    -0.8210 h1         1 G3R       0.048200
     33 H32C         5.3320     2.6620     0.9030 h1         1 G3R       0.048200
     34 H4           2.8910     3.2740     0.0550 hn         1 G3R       0.437800
     35 H7           5.0360     0.3250    -0.3180 ha         1 G3R       0.135000
     36 H8           1.0200     1.8640     0.0180 ha         1 G3R       0.152000
     37 H19          4.1710    -1.9420    -0.2820 ha         1 G3R       0.151000
     38 H201        -2.4290    -2.4680    -0.6280 hc         1 G3R       0.083200
     39 H202        -2.2670    -2.5350     1.1030 hc         1 G3R       0.083200
     40 H151         0.1930    -6.5110    -0.3080 hn         1 G3R       0.417800
     41 H152         1.8630    -6.3780    -0.4830 hn         1 G3R       0.417800
     42 H22         -2.9570    -0.2520    -1.7750 ha         1 G3R       0.151000
     43 H29         -3.0600    -0.7400     2.4940 ha         1 G3R       0.137000
     44 H251        -4.3310     4.0580    -0.9780 h2         1 G3R       0.062700
     45 H252        -5.9870     3.4400    -1.2900 h2         1 G3R       0.062700
     46 H28         -4.3890     1.3410     2.7410 ha         1 G3R       0.151000
@<TRIPOS>BOND
     1     1     2 1   
     2     1    29 1   
     3     2     3 1   
     4     2    30 1   
     5     2    31 1   
     6     3     4 1   
     7     3    32 1   
     8     3    33 1   
     9     4     5 1   
    10     4    34 1   
    11     5     6 ar  
    12     5     8 ar  
    13     6     7 ar  
    14     6    35 1   
    15     7    10 ar  
    16     7    37 1   
    17     8     9 ar  
    18     8    36 1   
    19     9    10 ar  
    20     9    11 1   
    21    10    15 1   
    22    11    12 2   
    23    12    13 1   
    24    12    19 1   
    25    13    14 1   
    26    13    15 1   
    27    14    17 2   
    28    15    16 2   
    29    16    17 1   
    30    17    18 1   
    31    18    40 1   
    32    18    41 1   
    33    19    20 1   
    34    19    38 1   
    35    19    39 1   
    36    20    21 ar  
    37    20    28 ar  
    38    21    22 ar  
    39    21    42 1   
    40    22    23 1   
    41    22    26 ar  
    42    23    24 1   
    43    24    25 1   
    44    24    44 1   
    45    24    45 1   
    46    25    26 1   
    47    26    27 ar  
    48    27    28 ar  
    49    27    46 1   
    50    28    43 1   
@<TRIPOS>SUBSTRUCTURE
     1 G3R         1 TEMP              0 ****  ****    0 ROOT
