@<TRIPOS>MOLECULE
G3S
   50    52     1     0     0
SMALL
abcg2


@<TRIPOS>ATOM
      1 C10         -3.4230     2.0870    -0.3210 c3         1 G3S      -0.007100
      2 C13          0.7100     1.9170     0.1350 ca         1 G3S      -0.123000
      3 C15          3.0920     1.9790    -0.0080 ca         1 G3S      -0.236600
      4 C17          2.0300    -0.0600     0.7010 ca         1 G3S      -0.142000
      5 C20          5.3500     1.2230     0.1170 c          1 G3S       0.461000
      6 C22          4.4560     2.4400    -0.2310 c          1 G3S       0.516700
      7 C26          5.2660    -3.4980     0.1690 c3         1 G3S      -0.074400
      8 C28          5.6330    -5.9140    -0.5110 c3         1 G3S      -0.088100
      9 C04         -6.4410    -1.0000    -0.1260 ca         1 G3S      -0.124600
     10 C05         -6.1400    -0.2220     0.9890 ca         1 G3S      -0.089000
     11 C06         -5.1800     0.7780     0.9240 ca         1 G3S      -0.135500
     12 C07         -4.4940     1.0330    -0.2610 ca         1 G3S      -0.131300
     13 C08         -4.7940     0.2570    -1.3770 ca         1 G3S      -0.135500
     14 C09         -5.7520    -0.7440    -1.3100 ca         1 G3S      -0.089000
     15 C11         -2.0650     1.4800     0.0280 c3         1 G3S       0.059600
     16 C14          1.8800     2.6200    -0.1580 ca         1 G3S       0.007000
     17 C16          3.1750     0.6500     0.4150 ca         1 G3S       0.084600
     18 C18          0.8050     0.5910     0.5620 ca         1 G3S      -0.058000
     19 C25          4.8270    -2.1070    -0.2690 c3         1 G3S      -0.100400
     20 C27          5.1800    -4.5280    -0.9500 c3         1 G3S      -0.075400
     21 N19          4.5070     0.2290     0.4930 n          1 G3S      -0.310000
     22 O01         -8.0790    -2.2430     1.0350 o          1 G3S      -0.719000
     23 O03         -7.6830    -2.7570    -1.0960 o          1 G3S      -0.719000
     24 O21          6.5540     1.1930     0.0560 o          1 G3S      -0.485000
     25 O23          4.8830     3.5010    -0.6000 o          1 G3S      -0.452100
     26 S12         -0.8110     2.7880    -0.0450 ss         1 G3S      -0.190000
     27 H1          -3.3800     2.5240    -1.3210 hc         1 G3S       0.047200
     28 H2          -3.6540     2.8950     0.3760 hc         1 G3S       0.047200
     29 H3           2.0530    -1.0920     1.0270 ha         1 G3S       0.128000
     30 H4           4.3110    -1.4240     1.7220 h1         1 G3S       0.059700
     31 H5           5.9480    -1.0390     1.2380 h1         1 G3S       0.059700
     32 H6           6.2950    -3.4540     0.5430 hc         1 G3S       0.038200
     33 H7           4.6510    -3.8270     1.0140 hc         1 G3S       0.038200
     34 H8           6.6710    -5.9020    -0.1760 hc         1 G3S       0.031367
     35 H9           5.0250    -6.2820     0.3180 hc         1 G3S       0.031367
     36 H10          5.5550    -6.6360    -1.3240 hc         1 G3S       0.031367
     37 H11         -6.6660    -0.3980     1.9180 ha         1 G3S       0.128500
     38 H12         -4.9640     1.3730     1.8040 ha         1 G3S       0.085000
     39 H13         -4.2740     0.4400    -2.3120 ha         1 G3S       0.085000
     40 H14         -5.9720    -1.3340    -2.1900 ha         1 G3S       0.128500
     41 H15         -2.0950     1.0450     1.0280 h1         1 G3S       0.068200
     42 H16         -1.8070     0.6940    -0.6850 h1         1 G3S       0.068200
     43 H17          1.8450     3.6490    -0.4980 ha         1 G3S       0.140000
     44 H18         -0.0900     0.0310     0.7980 ha         1 G3S       0.130000
     45 H19          3.8010    -2.1470    -0.6450 hc         1 G3S       0.052200
     46 H20          5.4520    -1.7650    -1.0990 hc         1 G3S       0.052200
     47 H21          4.1510    -4.5780    -1.3170 hc         1 G3S       0.040200
     48 H22          5.7870    -4.1940    -1.7970 hc         1 G3S       0.040200
     49 C24          4.9220    -1.1050     0.8750 c3         1 G3S       0.109000
     50 C02         -7.4950    -2.0970    -0.0560 c          1 G3S       0.711600
@<TRIPOS>BOND
     1     1    12 1   
     2     1    15 1   
     3     1    27 1   
     4     1    28 1   
     5     2    16 ar  
     6     2    18 ar  
     7     2    26 1   
     8     3     6 1   
     9     3    16 ar  
    10     3    17 ar  
    11     4    17 ar  
    12     4    18 ar  
    13     4    29 1   
    14     5     6 1   
    15     5    21 1   
    16     5    24 2   
    17     6    25 2   
    18     7    19 1   
    19     7    20 1   
    20     7    32 1   
    21     7    33 1   
    22     8    20 1   
    23     8    34 1   
    24     8    35 1   
    25     8    36 1   
    26     9    10 ar  
    27     9    14 ar  
    28     9    50 1   
    29    10    11 ar  
    30    10    37 1   
    31    11    12 ar  
    32    11    38 1   
    33    12    13 ar  
    34    13    14 ar  
    35    13    39 1   
    36    14    40 1   
    37    15    26 1   
    38    15    41 1   
    39    15    42 1   
    40    16    43 1   
    41    17    21 1   
    42    18    44 1   
    43    19    45 1   
    44    19    46 1   
    45    19    49 1   
    46    20    47 1   
    47    20    48 1   
    48    21    49 1   
    49    22    50 1   
    50    23    50 1   
    51    30    49 1   
    52    31    49 1   
@<TRIPOS>SUBSTRUCTURE
     1 G3S         1 TEMP              0 ****  ****    0 ROOT
