@<TRIPOS>MOLECULE
G3S
   50    52     1     0     0
SMALL
No Charge or Current Charge


@<TRIPOS>ATOM
      1 C10         -3.4960     2.0270    -0.4840 c3         1 G3S      -0.007100
      2 C13          0.7630     1.8660    -0.0390 ca         1 G3S      -0.123000
      3 C15          3.1770     1.9470     0.0090 ca         1 G3S      -0.236600
      4 C17          2.0610    -0.0980     0.6860 ca         1 G3S      -0.142000
      5 C20          5.4770     1.2910     0.3980 c          1 G3S       0.461000
      6 C22          4.5650     2.4870    -0.0650 c          1 G3S       0.516700
      7 C26          5.3920    -3.5300     0.1790 c3         1 G3S      -0.074400
      8 C28          5.7630    -5.9330    -0.6650 c3         1 G3S      -0.088100
      9 C04         -6.6720    -0.9320    -0.0180 ca         1 G3S      -0.124600
     10 C05         -6.2720    -0.1200     1.0690 ca         1 G3S      -0.089000
     11 C06         -5.2510     0.8340     0.9160 ca         1 G3S      -0.135500
     12 C07         -4.6080     0.9980    -0.3230 ca         1 G3S      -0.131300
     13 C08         -4.9950     0.1940    -1.4090 ca         1 G3S      -0.135500
     14 C09         -6.0160    -0.7610    -1.2610 ca         1 G3S      -0.089000
     15 C11         -2.1130     1.4320    -0.1620 c3         1 G3S       0.059600
     16 C14          1.9580     2.5910    -0.2420 ca         1 G3S       0.007000
     17 C16          3.2340     0.6210     0.4280 ca         1 G3S       0.084600
     18 C18          0.8200     0.5260     0.4340 ca         1 G3S      -0.058000
     19 C25          4.9520    -2.0940    -0.1790 c3         1 G3S      -0.100400
     20 C27          5.3230    -4.4990    -1.0210 c3         1 G3S      -0.075400
     21 N19          4.5880     0.2400     0.6790 n          1 G3S      -0.310000
     22 O01         -8.3160    -2.0800     1.2370 o          1 G3S      -0.719000
     23 O03         -8.0910    -2.6460    -0.8230 o          1 G3S      -0.719000
     24 O21          6.7030     1.2640     0.4790 o          1 G3S      -0.485000
     25 O23          4.9100     3.6150    -0.4080 o          1 G3S      -0.452100
     26 S12         -0.7910     2.7080    -0.3680 ss         1 G3S      -0.190000
     27 H1          -3.4870     2.4190    -1.5080 hc         1 G3S       0.047200
     28 H2          -3.6770     2.8860     0.1740 hc         1 G3S       0.047200
     29 H3           2.0990    -1.1160     1.0640 ha         1 G3S       0.128000
     30 H4           4.3810    -1.5050     1.8300 h1         1 G3S       0.059700
     31 H5           6.0490    -1.0970     1.4040 h1         1 G3S       0.059700
     32 H6           6.4200    -3.5060     0.5650 hc         1 G3S       0.038200
     33 H7           4.7550    -3.9120     0.9870 hc         1 G3S       0.038200
     34 H8           6.7990    -5.9430    -0.3070 hc         1 G3S       0.031367
     35 H9           5.1210    -6.3520     0.1190 hc         1 G3S       0.031367
     36 H10          5.6970    -6.5820    -1.5460 hc         1 G3S       0.031367
     37 H11         -6.7540    -0.2250     2.0390 ha         1 G3S       0.128500
     38 H12         -4.9590     1.4460     1.7670 ha         1 G3S       0.085000
     39 H13         -4.5040     0.3060    -2.3730 ha         1 G3S       0.085000
     40 H14         -6.2960    -1.3700    -2.1180 ha         1 G3S       0.128500
     41 H15         -2.1040     1.0670     0.8720 h1         1 G3S       0.068200
     42 H16         -1.9100     0.5910    -0.8380 h1         1 G3S       0.068200
     43 H17          1.9330     3.6270    -0.5760 ha         1 G3S       0.140000
     44 H18         -0.0870    -0.0420     0.6210 ha         1 G3S       0.130000
     45 H19          3.9260    -2.1180    -0.5660 hc         1 G3S       0.052200
     46 H20          5.5890    -1.7090    -0.9830 hc         1 G3S       0.052200
     47 H21          4.2970    -4.5270    -1.4080 hc         1 G3S       0.040200
     48 H22          5.9610    -4.1220    -1.8310 hc         1 G3S       0.040200
     49 C24          5.0200    -1.1280     1.0210 c3         1 G3S       0.109000
     50 C02         -7.7770    -1.9650     0.1440 c          1 G3S       0.711600
@<TRIPOS>BOND
     1     1    12 1   
     2     1    15 1   
     3     1    27 1   
     4     1    28 1   
     5     2    16 ar  
     6     2    18 ar  
     7     2    26 1   
     8     3     6 1   
     9     3    16 ar  
    10     3    17 ar  
    11     4    17 ar  
    12     4    18 ar  
    13     4    29 1   
    14     5     6 1   
    15     5    21 1   
    16     5    24 2   
    17     6    25 2   
    18     7    19 1   
    19     7    20 1   
    20     7    32 1   
    21     7    33 1   
    22     8    20 1   
    23     8    34 1   
    24     8    35 1   
    25     8    36 1   
    26     9    10 ar  
    27     9    14 ar  
    28     9    50 1   
    29    10    11 ar  
    30    10    37 1   
    31    11    12 ar  
    32    11    38 1   
    33    12    13 ar  
    34    13    14 ar  
    35    13    39 1   
    36    14    40 1   
    37    15    26 1   
    38    15    41 1   
    39    15    42 1   
    40    16    43 1   
    41    17    21 1   
    42    18    44 1   
    43    19    45 1   
    44    19    46 1   
    45    19    49 1   
    46    20    47 1   
    47    20    48 1   
    48    21    49 1   
    49    22    50 1   
    50    23    50 1   
    51    30    49 1   
    52    31    49 1   
@<TRIPOS>SUBSTRUCTURE
     1 G3S         1 TEMP              0 ****  ****    0 ROOT
