@<TRIPOS>MOLECULE
G3T
   63    65     1     0     0
SMALL
No Charge or Current Charge


@<TRIPOS>ATOM
      1 C10          4.4010    -0.2870     0.3840 c6         1 G3T       0.161300
      2 C13          7.0900    -1.2880    -0.0010 c6         1 G3T       0.132800
      3 C15          8.0440     1.0720    -0.1590 c3         1 G3T       0.210200
      4 C17          9.3730     0.6090     0.5060 c3         1 G3T      -0.097433
      5 C20         -0.3070    -1.0300     1.1010 ca         1 G3T      -0.151500
      6 C21         -1.6870    -0.8590     0.8890 ca         1 G3T      -0.100000
      7 C24         -8.1950     0.1290    -1.1590 c6         1 G3T      -0.092400
      8 C26        -10.0740     0.7120     0.4710 c6         1 G3T      -0.077400
      9 C28         -7.6330     0.8120     1.2200 c6         1 G3T      -0.092400
     10 C02         -4.6930    -0.2570     0.1840 c          1 G3T       0.654100
     11 C04         -2.1510    -0.0020    -0.1330 ca         1 G3T      -0.052000
     12 C05         -1.2080     0.6720    -0.9330 ca         1 G3T      -0.100000
     13 C06          0.1730     0.5020    -0.7210 ca         1 G3T      -0.151500
     14 C07          0.6290    -0.3530     0.3040 ca         1 G3T       0.127100
     15 C09          3.0070     0.1120    -0.1800 c3         1 G3T       0.167600
     16 C12          5.9200    -2.1440     0.5660 c6         1 G3T       0.152600
     17 C16          7.7990     2.5360     0.3100 c3         1 G3T      -0.097433
     18 C18          8.2460     1.0800    -1.7010 c3         1 G3T      -0.097433
     19 C19          5.5360     0.6130    -0.1970 c6         1 G3T       0.139800
     20 C23         -7.2130    -0.0830     0.0230 c6         1 G3T       0.121700
     21 C25         -9.6580    -0.1600    -0.7390 c6         1 G3T      -0.071400
     22 C27         -9.0930     0.5290     1.6540 c6         1 G3T      -0.071400
     23 N14          6.9040     0.1840     0.2680 n3         1 G3T      -0.729600
     24 N22         -5.8430     0.2300    -0.4000 ns         1 G3T      -0.517900
     25 O01         -4.7300    -1.0370     1.1250 o          1 G3T      -0.623100
     26 O08          1.9690    -0.5560     0.5660 os         1 G3T      -0.330100
     27 O11          4.6550    -1.6750     0.0510 os         1 G3T      -0.438000
     28 H1           4.3800    -0.1760     1.4780 h1         1 G3T       0.060700
     29 H2           8.0160    -1.6620     0.4540 h1         1 G3T       0.041200
     30 H3           7.1600    -1.4780    -1.0820 h1         1 G3T       0.041200
     31 H4          10.1750     1.3370     0.3330 hc         1 G3T       0.038144
     32 H5           9.2480     0.4970     1.5900 hc         1 G3T       0.038144
     33 H6           9.7200    -0.3470     0.0980 hc         1 G3T       0.038144
     34 H7           0.0400    -1.6900     1.8920 ha         1 G3T       0.122500
     35 H8          -2.3750    -1.4010     1.5300 ha         1 G3T       0.122000
     36 H10         -7.9170    -0.5270    -1.9950 hc         1 G3T       0.044450
     37 H11        -10.1000     1.7700     0.1720 hc         1 G3T       0.039700
     38 H12        -11.0930     0.4520     0.7860 hc         1 G3T       0.039700
     39 H13         -6.9590     0.6390     2.0700 hc         1 G3T       0.044450
     40 H14         -7.5280     1.8710     0.9490 hc         1 G3T       0.044450
     41 H15         -1.5450     1.3370    -1.7260 ha         1 G3T       0.122000
     42 H16          0.8670     1.0410    -1.3590 ha         1 G3T       0.122500
     43 H17          2.8950     1.2000    -0.0890 h1         1 G3T       0.039700
     44 H18          2.9600    -0.1530    -1.2440 h1         1 G3T       0.039700
     45 H19          6.0560    -3.1970     0.2810 h1         1 G3T       0.051700
     46 H20          5.9100    -2.0860     1.6640 h1         1 G3T       0.051700
     47 H21          6.9820     3.0100    -0.2440 hc         1 G3T       0.038144
     48 H22          7.5560     2.5660     1.3790 hc         1 G3T       0.038144
     49 H23          8.6900     3.1550     0.1500 hc         1 G3T       0.038144
     50 H24          9.0820     1.7350    -1.9760 hc         1 G3T       0.038144
     51 H25          8.4750     0.0790    -2.0820 hc         1 G3T       0.038144
     52 H26          7.3550     1.4500    -2.2210 hc         1 G3T       0.038144
     53 H27          5.4740     0.5820    -1.2940 h1         1 G3T       0.039700
     54 H28          5.3210     1.6460     0.1100 h1         1 G3T       0.039700
     55 H29         -7.2540    -1.1400     0.3320 h1         1 G3T       0.081700
     56 H30        -10.3330     0.0290    -1.5850 hc         1 G3T       0.043450
     57 H31         -9.7670    -1.2230    -0.4840 hc         1 G3T       0.043450
     58 H32         -9.3740     1.1990     2.4780 hc         1 G3T       0.043450
     59 H33         -9.1710    -0.4960     2.0450 hc         1 G3T       0.043450
     60 H36         -5.7210     0.8690    -1.1750 hn         1 G3T       0.298500
     61 N03         -3.5300     0.2280    -0.4080 ns         1 G3T      -0.165000
     62 H9          -8.1160     1.1600    -1.5310 hc         1 G3T       0.044450
     63 H34         -3.6750     0.8670    -1.1800 hn         1 G3T       0.138000
@<TRIPOS>BOND
     1     1    15 1   
     2     1    19 1   
     3     1    27 1   
     4     1    28 1   
     5     2    16 1   
     6     2    23 1   
     7     2    29 1   
     8     2    30 1   
     9     3     4 1   
    10     3    17 1   
    11     3    18 1   
    12     3    23 1   
    13     4    31 1   
    14     4    32 1   
    15     4    33 1   
    16     5     6 ar  
    17     5    14 ar  
    18     5    34 1   
    19     6    11 ar  
    20     6    35 1   
    21     7    20 1   
    22     7    21 1   
    23     7    36 1   
    24     7    62 1   
    25     8    21 1   
    26     8    22 1   
    27     8    37 1   
    28     8    38 1   
    29     9    20 1   
    30     9    22 1   
    31     9    39 1   
    32     9    40 1   
    33    10    24 1   
    34    10    25 2   
    35    10    61 1   
    36    11    12 ar  
    37    11    61 1   
    38    12    13 ar  
    39    12    41 1   
    40    13    14 ar  
    41    13    42 1   
    42    14    26 1   
    43    15    26 1   
    44    15    43 1   
    45    15    44 1   
    46    16    27 1   
    47    16    45 1   
    48    16    46 1   
    49    17    47 1   
    50    17    48 1   
    51    17    49 1   
    52    18    50 1   
    53    18    51 1   
    54    18    52 1   
    55    19    23 1   
    56    19    53 1   
    57    19    54 1   
    58    20    24 1   
    59    20    55 1   
    60    21    56 1   
    61    21    57 1   
    62    22    58 1   
    63    22    59 1   
    64    24    60 1   
    65    61    63 1   
@<TRIPOS>SUBSTRUCTURE
     1 G3T         1 TEMP              0 ****  ****    0 ROOT
