@<TRIPOS>MOLECULE
G3T
   63    65     1     0     0
SMALL
bcc


@<TRIPOS>ATOM
      1 C10          4.2490    -0.3680     0.3490 c6         1 G3T       0.138100
      2 C13          6.8990    -1.1470    -0.1100 c6         1 G3T       0.132800
      3 C15          7.6990     1.1890     0.0620 c3         1 G3T       0.210200
      4 C17          8.9960     0.6910     0.7070 c3         1 G3T      -0.097433
      5 C20         -0.2930    -1.5570     0.5470 ca         1 G3T      -0.169500
      6 C21         -1.6400    -1.4570     0.2530 ca         1 G3T      -0.118000
      7 C24         -8.1400    -0.3240    -0.7920 c6         1 G3T      -0.092400
      8 C26         -9.5910     1.1300     0.6720 c6         1 G3T      -0.077400
      9 C28         -7.0830     1.2840     0.8270 c6         1 G3T      -0.092400
     10 C02         -4.5220    -0.4510    -0.0750 c          1 G3T       0.788100
     11 C04         -2.1100    -0.4350    -0.5750 ca         1 G3T       0.040600
     12 C05         -1.1860     0.4550    -1.1090 ca         1 G3T      -0.118000
     13 C06          0.1720     0.3470    -0.8340 ca         1 G3T      -0.169500
     14 C07          0.6290    -0.6580     0.0110 ca         1 G3T       0.127100
     15 C09          2.8950     0.0160    -0.2020 c3         1 G3T       0.144400
     16 C12          5.8150    -2.0810     0.3880 c6         1 G3T       0.129400
     17 C16          7.3420     2.5230     0.7260 c3         1 G3T      -0.097433
     18 C18          7.9490     1.4280    -1.4340 c3         1 G3T      -0.097433
     19 C19          5.3090     0.6090    -0.1460 c6         1 G3T       0.139800
     20 C23         -6.9470    -0.0700     0.1260 c6         1 G3T       0.121700
     21 C25         -9.4580    -0.2150    -0.0330 c6         1 G3T      -0.071400
     22 C27         -8.4000     1.3850     1.5890 c6         1 G3T      -0.071400
     23 N14          6.6230     0.2110     0.3260 n3         1 G3T      -0.729600
     24 N22         -5.7210    -0.1690    -0.6410 ns         1 G3T      -0.584900
     25 O01         -4.3970    -0.8340     1.0790 o          1 G3T      -0.623100
     26 O08          1.9220    -0.8410     0.3580 os         1 G3T      -0.306900
     27 O11          4.5370    -1.6860    -0.0560 os         1 G3T      -0.391600
     28 H1           4.2210    -0.3100     1.4490 h1         1 G3T       0.060700
     29 H2           7.8430    -1.4960     0.3080 h1         1 G3T       0.041200
     30 H3           6.9770    -1.2360    -1.2060 h1         1 G3T       0.041200
     31 H4           9.7470     1.4820     0.6810 hc         1 G3T       0.038144
     32 H5           8.8340     0.4130     1.7500 hc         1 G3T       0.038144
     33 H6           9.4220    -0.1660     0.1860 hc         1 G3T       0.038144
     34 H7           0.0550    -2.3540     1.1920 ha         1 G3T       0.140500
     35 H8          -2.3190    -2.1880     0.6650 ha         1 G3T       0.140000
     36 H10         -8.0450    -1.3100    -1.2560 hc         1 G3T       0.044450
     37 H11         -9.6490     1.9290    -0.0770 hc         1 G3T       0.039700
     38 H12        -10.5240     1.1670     1.2390 hc         1 G3T       0.039700
     39 H13         -6.2390     1.4320     1.5040 hc         1 G3T       0.044450
     40 H14         -7.0330     2.0770     0.0720 hc         1 G3T       0.044450
     41 H15         -1.5240     1.2590    -1.7530 ha         1 G3T       0.140000
     42 H16          0.8440     1.0660    -1.2810 ha         1 G3T       0.140500
     43 H17          2.6930     1.0620     0.0570 h1         1 G3T       0.039700
     44 H18          2.8970    -0.0620    -1.2960 h1         1 G3T       0.039700
     45 H19          5.9900    -3.0910     0.0120 h1         1 G3T       0.051700
     46 H20          5.8450    -2.1190     1.4860 h1         1 G3T       0.051700
     47 H21          6.5160     3.0380     0.2330 hc         1 G3T       0.038144
     48 H22          7.0760     2.3790     1.7740 hc         1 G3T       0.038144
     49 H23          8.1990     3.1950     0.6820 hc         1 G3T       0.038144
     50 H24          8.7470     2.1600    -1.5710 hc         1 G3T       0.038144
     51 H25          8.2560     0.5140    -1.9470 hc         1 G3T       0.038144
     52 H26          7.0640     1.8160    -1.9410 hc         1 G3T       0.038144
     53 H27          5.2500     0.6680    -1.2470 h1         1 G3T       0.039700
     54 H28          5.0540     1.5940     0.2430 h1         1 G3T       0.039700
     55 H29         -6.9270    -0.8550     0.8880 h1         1 G3T       0.081700
     56 H30        -10.2920    -0.3690    -0.7220 hc         1 G3T       0.043450
     57 H31         -9.5170    -1.0200     0.7090 hc         1 G3T       0.043450
     58 H32         -8.4830     2.3660     2.0630 hc         1 G3T       0.043450
     59 H33         -8.4070     0.6480     2.4010 hc         1 G3T       0.043450
     60 H36         -5.7370     0.2430    -1.5610 hn         1 G3T       0.298500
     61 N03         -3.4580    -0.3040    -0.9340 ns         1 G3T      -0.491100
     62 H9          -8.1310     0.4120    -1.6050 hc         1 G3T       0.044450
     63 H34         -3.6270     0.1930    -1.7960 hn         1 G3T       0.304500
@<TRIPOS>BOND
     1     1    15 1   
     2     1    19 1   
     3     1    27 1   
     4     1    28 1   
     5     2    16 1   
     6     2    23 1   
     7     2    29 1   
     8     2    30 1   
     9     3     4 1   
    10     3    17 1   
    11     3    18 1   
    12     3    23 1   
    13     4    31 1   
    14     4    32 1   
    15     4    33 1   
    16     5     6 ar  
    17     5    14 ar  
    18     5    34 1   
    19     6    11 ar  
    20     6    35 1   
    21     7    20 1   
    22     7    21 1   
    23     7    36 1   
    24     7    62 1   
    25     8    21 1   
    26     8    22 1   
    27     8    37 1   
    28     8    38 1   
    29     9    20 1   
    30     9    22 1   
    31     9    39 1   
    32     9    40 1   
    33    10    24 1   
    34    10    25 2   
    35    10    61 1   
    36    11    12 ar  
    37    11    61 1   
    38    12    13 ar  
    39    12    41 1   
    40    13    14 ar  
    41    13    42 1   
    42    14    26 1   
    43    15    26 1   
    44    15    43 1   
    45    15    44 1   
    46    16    27 1   
    47    16    45 1   
    48    16    46 1   
    49    17    47 1   
    50    17    48 1   
    51    17    49 1   
    52    18    50 1   
    53    18    51 1   
    54    18    52 1   
    55    19    23 1   
    56    19    53 1   
    57    19    54 1   
    58    20    24 1   
    59    20    55 1   
    60    21    56 1   
    61    21    57 1   
    62    22    58 1   
    63    22    59 1   
    64    24    60 1   
    65    61    63 1   
@<TRIPOS>SUBSTRUCTURE
     1 G3T         1 TEMP              0 ****  ****    0 ROOT
