@<TRIPOS>MOLECULE
G3U
   45    47     1     0     0
SMALL
No Charge or Current Charge


@<TRIPOS>ATOM
      1 C10        107.8040   117.0960   135.4400 ca         1 G3U       0.573300
      2 C13        105.7910   117.1400   137.5640 ca         1 G3U      -0.108000
      3 C15        104.3680   118.6210   138.9010 ca         1 G3U      -0.086800
      4 C17        106.3070   119.5080   137.7060 ca         1 G3U      -0.113000
      5 C21        102.0720   118.2150   141.8780 c          1 G3U       0.616000
      6 C24        100.9830   119.7740   140.3560 c          1 G3U       0.585200
      7 C26        102.1250   119.6160   139.4290 cc         1 G3U      -0.252400
      8 C02        110.2650   117.2770   137.2480 c3         1 G3U       0.394300
      9 C05        108.9160   116.1890   135.4400 ca         1 G3U       0.027100
     10 C06        108.9460   115.1910   134.4510 ca         1 G3U      -0.043000
     11 C07        107.9120   115.1400   133.5050 ca         1 G3U      -0.186000
     12 C08        106.8740   116.0800   133.5690 ca         1 G3U       0.382900
     13 C12        106.5960   118.2340   137.1980 ca         1 G3U       0.128100
     14 C14        104.6870   117.3370   138.4070 ca         1 G3U      -0.074000
     15 C16        105.2030   119.7180   138.5560 ca         1 G3U      -0.035300
     16 C18        105.0020   121.1170   139.1330 c3         1 G3U      -0.055800
     17 C19        103.1720   118.7690   139.7650 cd         1 G3U       0.149400
     18 F01        110.6330   118.3800   136.5570 f          1 G3U      -0.115000
     19 F03        111.3150   116.9550   138.0360 f          1 G3U      -0.115000
     20 N09        106.8140   117.0410   134.5150 nb         1 G3U      -0.731000
     21 N20        103.1720   118.1100   141.0040 n          1 G3U      -0.307000
     22 N23        101.0740   119.0400   141.4880 ns         1 G3U      -0.465500
     23 O04        109.9700   116.1880   136.3520 os         1 G3U      -0.374100
     24 O11        107.7030   118.0810   136.3940 os         1 G3U      -0.364400
     25 O22        101.9950   117.6210   142.9410 o          1 G3U      -0.558000
     26 O25        100.0130   120.4870   140.1540 o          1 G3U      -0.529000
     27 H1         106.0130   116.1410   137.1990 ha         1 G3U       0.136000
     28 H2         106.9560   120.3400   137.4440 ha         1 G3U       0.129000
     29 H3         104.3950   117.2940   142.5650 h1         1 G3U       0.059700
     30 H4         104.2690   116.2890   141.0970 h1         1 G3U       0.059700
     31 H5         105.2820   117.7650   141.1130 h1         1 G3U       0.059700
     32 H6         109.4100   117.5130   137.8890 h3         1 G3U       0.065700
     33 H7         109.7640   114.4740   134.4190 ha         1 G3U       0.145000
     34 H8         107.9090   114.3830   132.7250 ha         1 G3U       0.137000
     35 H9         106.0620   116.0610   132.8430 h4         1 G3U       0.029100
     36 H10        104.0570   116.4870   138.6620 ha         1 G3U       0.127000
     37 H11        104.4970   121.7720   138.4150 hc         1 G3U       0.052367
     38 H12        104.4180   121.1090   140.0600 hc         1 G3U       0.052367
     39 H13        105.9660   121.5820   139.3740 hc         1 G3U       0.052367
     40 H14        102.7240   120.0720   137.3760 hc         1 G3U       0.050033
     41 H15        100.9930   120.1700   137.6630 hc         1 G3U       0.050033
     42 H16        102.0560   121.4490   138.2710 hc         1 G3U       0.050033
     43 H17        100.3000   119.1200   142.1270 hn         1 G3U       0.344500
     44 C27        101.9720   120.3660   138.1170 c3         1 G3U      -0.024900
     45 C28        104.3450   117.3180   141.4700 c3         1 G3U       0.086300
@<TRIPOS>BOND
     1     1     9 ar  
     2     1    20 ar  
     3     1    24 1   
     4     2    13 ar  
     5     2    14 ar  
     6     2    27 1   
     7     3    14 ar  
     8     3    15 ar  
     9     3    17 1   
    10     4    13 ar  
    11     4    15 ar  
    12     4    28 1   
    13     5    21 1   
    14     5    22 1   
    15     5    25 2   
    16     6     7 1   
    17     6    22 1   
    18     6    26 2   
    19     7    17 2   
    20     7    44 1   
    21     8    18 1   
    22     8    19 1   
    23     8    23 1   
    24     8    32 1   
    25     9    10 ar  
    26     9    23 1   
    27    10    11 ar  
    28    10    33 1   
    29    11    12 ar  
    30    11    34 1   
    31    12    20 ar  
    32    12    35 1   
    33    13    24 1   
    34    14    36 1   
    35    15    16 1   
    36    16    37 1   
    37    16    38 1   
    38    16    39 1   
    39    17    21 1   
    40    21    45 1   
    41    22    43 1   
    42    29    45 1   
    43    30    45 1   
    44    31    45 1   
    45    40    44 1   
    46    41    44 1   
    47    42    44 1   
@<TRIPOS>SUBSTRUCTURE
     1 G3U         1 TEMP              0 ****  ****    0 ROOT
