@<TRIPOS>MOLECULE
G3U
   45    47     1     0     0
SMALL
abcg2


@<TRIPOS>ATOM
      1 C10        107.7500   116.8800   135.9400 ca         1 G3U       0.573300
      2 C13        105.5900   116.5380   138.1550 ca         1 G3U      -0.108000
      3 C15        104.2980   118.2960   139.1850 ca         1 G3U      -0.086800
      4 C17        106.4520   118.7870   138.2610 ca         1 G3U      -0.113000
      5 C21        101.8520   118.8830   141.9330 c          1 G3U       0.616000
      6 C24        100.8200   119.6570   139.8290 c          1 G3U       0.585200
      7 C26        102.0230   119.2520   139.1300 cc         1 G3U      -0.252400
      8 C02        110.8770   117.1190   136.4140 c3         1 G3U       0.394300
      9 C05        108.9330   116.4010   135.3640 ca         1 G3U       0.027100
     10 C06        108.9600   116.2020   134.0010 ca         1 G3U      -0.043000
     11 C07        107.8180   116.4800   133.2560 ca         1 G3U      -0.186000
     12 C08        106.7070   116.9550   133.9230 ca         1 G3U       0.382900
     13 C12        106.5830   117.4630   137.8850 ca         1 G3U       0.128100
     14 C14        104.4460   116.9670   138.8070 ca         1 G3U      -0.074000
     15 C16        105.3080   119.2250   138.9200 ca         1 G3U      -0.035300
     16 C18        105.1630   120.6650   139.3160 c3         1 G3U      -0.055800
     17 C19        103.0420   118.7260   139.8470 cd         1 G3U       0.149400
     18 F01        111.5890   117.4240   135.3030 f          1 G3U      -0.115000
     19 F03        111.7450   116.6500   137.3200 f          1 G3U      -0.115000
     20 N09        106.6780   117.1500   135.2410 nb         1 G3U      -0.731000
     21 N20        102.9800   118.5560   141.2170 n          1 G3U      -0.307000
     22 N23        100.8400   119.4280   141.1890 ns         1 G3U      -0.465500
     23 O04        110.0140   116.0940   136.1530 os         1 G3U      -0.374100
     24 O11        107.7520   117.0640   137.2750 os         1 G3U      -0.364400
     25 O22        101.7410   118.7150   143.1310 o          1 G3U      -0.558000
     26 O25         99.8450   120.1620   139.3010 o          1 G3U      -0.529000
     27 H1         105.7000   115.5030   137.8590 ha         1 G3U       0.136000
     28 H2         107.2470   119.4890   138.0380 ha         1 G3U       0.129000
     29 H3         103.9420   118.0980   143.0050 h1         1 G3U       0.059700
     30 H4         104.2120   116.9170   141.7210 h1         1 G3U       0.059700
     31 H5         105.0290   118.4870   141.6750 h1         1 G3U       0.059700
     32 H6         110.3990   118.0300   136.7810 h3         1 G3U       0.065700
     33 H7         109.8540   115.8170   133.5280 ha         1 G3U       0.145000
     34 H8         107.7990   116.3310   132.1860 ha         1 G3U       0.137000
     35 H9         105.7960   117.1890   133.3860 h4         1 G3U       0.029100
     36 H10        103.6550   116.2580   139.0170 ha         1 G3U       0.127000
     37 H11        104.3220   121.1350   138.8030 hc         1 G3U       0.052367
     38 H12        104.9840   120.7720   140.3870 hc         1 G3U       0.052367
     39 H13        106.0600   121.2310   139.0710 hc         1 G3U       0.052367
     40 H14        102.9800   119.1130   137.2060 hc         1 G3U       0.050033
     41 H15        101.2340   118.9040   137.1680 hc         1 G3U       0.050033
     42 H16        101.9180   120.5040   137.3910 hc         1 G3U       0.050033
     43 H17        100.0090   119.6840   141.7080 hn         1 G3U       0.344500
     44 C27        102.0470   119.4510   137.6490 c3         1 G3U      -0.024900
     45 C28        104.1080   117.9770   141.9410 c3         1 G3U       0.086300
@<TRIPOS>BOND
     1     1     9 ar  
     2     1    20 ar  
     3     1    24 1   
     4     2    13 ar  
     5     2    14 ar  
     6     2    27 1   
     7     3    14 ar  
     8     3    15 ar  
     9     3    17 1   
    10     4    13 ar  
    11     4    15 ar  
    12     4    28 1   
    13     5    21 1   
    14     5    22 1   
    15     5    25 2   
    16     6     7 1   
    17     6    22 1   
    18     6    26 2   
    19     7    17 2   
    20     7    44 1   
    21     8    18 1   
    22     8    19 1   
    23     8    23 1   
    24     8    32 1   
    25     9    10 ar  
    26     9    23 1   
    27    10    11 ar  
    28    10    33 1   
    29    11    12 ar  
    30    11    34 1   
    31    12    20 ar  
    32    12    35 1   
    33    13    24 1   
    34    14    36 1   
    35    15    16 1   
    36    16    37 1   
    37    16    38 1   
    38    16    39 1   
    39    17    21 1   
    40    21    45 1   
    41    22    43 1   
    42    29    45 1   
    43    30    45 1   
    44    31    45 1   
    45    40    44 1   
    46    41    44 1   
    47    42    44 1   
@<TRIPOS>SUBSTRUCTURE
     1 G3U         1 TEMP              0 ****  ****    0 ROOT
