@<TRIPOS>MOLECULE
G3V
   54    56     1     0     0
SMALL
No Charge or Current Charge


@<TRIPOS>ATOM
      1 C02         -5.6530     3.0000    -0.0720 ca         1 G3V       0.444900
      2 C04         -4.6400     0.9920    -0.5770 ca         1 G3V       0.118000
      3 C06         -3.6200    -1.0510    -0.9890 ca         1 G3V       0.111900
      4 C07         -3.6940    -1.3950     0.3730 ca         1 G3V       0.237300
      5 C08         -3.1490    -2.7400     0.8770 c3         1 G3V       0.205500
      6 C10         -1.6960    -4.5100    -0.1670 c3         1 G3V       0.468800
      7 C12         -0.7320    -2.2410     0.2890 ca         1 G3V       0.300000
      8 C13          0.1860    -2.2700    -0.7770 ca         1 G3V      -0.187000
      9 C14          1.2590    -1.3630    -0.8360 ca         1 G3V      -0.046000
     10 C15          1.4380    -0.3950     0.1800 ca         1 G3V      -0.136600
     11 C16          0.5150    -0.3680     1.2480 ca         1 G3V      -0.046000
     12 C17         -0.5550    -1.2780     1.2980 ca         1 G3V      -0.187000
     13 C18          2.5810     0.6030     0.1590 c          1 G3V       0.597700
     14 C21          4.6460     1.3740    -1.1270 c3         1 G3V      -0.049300
     15 C22          5.9480     0.6600    -0.6740 c3         1 G3V      -0.057400
     16 C23          6.0090     0.3150     0.8370 c3         1 G3V      -0.200400
     17 C24          7.3850    -0.2820     1.1900 c          1 G3V       0.712000
     18 C27          4.7360     1.8160    -2.6200 c          1 G3V       0.719000
     19 C31         -4.7260     0.6420     0.8100 ca         1 G3V       0.032000
     20 C32         -5.3280     1.6110     1.6650 ca         1 G3V       0.465900
     21 N01         -6.1160     4.1860    -0.5190 nv         1 G3V      -1.071900
     22 N03         -5.1170     2.1870    -0.9900 nb         1 G3V      -0.272000
     23 N05         -4.0840     0.1250    -1.4560 nb         1 G3V      -0.116000
     24 N09         -1.8170    -3.1480     0.3410 nh         1 G3V      -0.847400
     25 N20          3.4420     0.5310    -0.9200 ns         1 G3V      -0.422900
     26 N30         -4.2520    -0.5510     1.2790 nb         1 G3V      -0.615000
     27 N33         -5.4780     1.4190     3.0080 nv         1 G3V      -1.060900
     28 N34         -5.7860     2.7880     1.2340 nb         1 G3V      -0.360000
     29 O11         -2.3260    -4.6010    -1.4320 oh         1 G3V      -0.688000
     30 O19          2.7300     1.4360     1.0450 o          1 G3V      -0.638100
     31 O25          8.2830     0.4820     1.5060 o          1 G3V      -0.761000
     32 O26          7.5340    -1.4900     1.0890 o          1 G3V      -0.761000
     33 O28          4.8360     3.0100    -2.8650 o          1 G3V      -0.742500
     34 O29          4.6110     0.9640    -3.4910 o          1 G3V      -0.742500
     35 H1          -3.1770    -1.7250    -1.7200 h4         1 G3V       0.052100
     36 H2          -3.1000    -2.7160     1.9740 h1         1 G3V       0.049200
     37 H3          -3.8990    -3.5030     0.6240 h1         1 G3V       0.049200
     38 H4          -0.6350    -4.7740    -0.2590 h2         1 G3V       0.024200
     39 H5          -2.1830    -5.1970     0.5370 h2         1 G3V       0.024200
     40 H6           0.0670    -2.9910    -1.5810 ha         1 G3V       0.103000
     41 H7           1.9380    -1.4280    -1.6830 ha         1 G3V       0.131000
     42 H8           0.6230     0.3620     2.0480 ha         1 G3V       0.131000
     43 H9          -1.2410    -1.2340     2.1380 ha         1 G3V       0.103000
     44 H10          4.5340     2.2910    -0.5350 h1         1 G3V       0.054700
     45 H11          6.0800    -0.2580    -1.2600 hc         1 G3V       0.050700
     46 H12          6.7980     1.3090    -0.9190 hc         1 G3V       0.050700
     47 H13          5.8550     1.2640     1.3670 hc         1 G3V       0.008200
     48 H14          5.2170    -0.4230     1.0140 hc         1 G3V       0.008200
     49 H15         -6.3040     4.9100     0.1690 hn         1 G3V       0.499000
     50 H16         -5.8250     4.4990    -1.4420 hn         1 G3V       0.499000
     51 H17          3.2330    -0.1620    -1.6260 hn         1 G3V       0.297500
     52 H18         -4.9550     0.6430     3.4070 hn         1 G3V       0.507500
     53 H19         -5.6030     2.2370     3.5970 hn         1 G3V       0.507500
     54 H20         -2.2040    -5.5310    -1.7150 ho         1 G3V       0.445000
@<TRIPOS>BOND
     1     1    21 1   
     2     1    22 ar  
     3     1    28 ar  
     4     2    19 ar  
     5     2    22 ar  
     6     2    23 ar  
     7     3     4 ar  
     8     3    23 ar  
     9     3    35 1   
    10     4     5 1   
    11     4    26 ar  
    12     5    24 1   
    13     5    36 1   
    14     5    37 1   
    15     6    24 1   
    16     6    29 1   
    17     6    38 1   
    18     6    39 1   
    19     7     8 ar  
    20     7    12 ar  
    21     7    24 1   
    22     8     9 ar  
    23     8    40 1   
    24     9    10 ar  
    25     9    41 1   
    26    10    11 ar  
    27    10    13 1   
    28    11    12 ar  
    29    11    42 1   
    30    12    43 1   
    31    13    25 1   
    32    13    30 2   
    33    14    15 1   
    34    14    18 1   
    35    14    25 1   
    36    14    44 1   
    37    15    16 1   
    38    15    45 1   
    39    15    46 1   
    40    16    17 1   
    41    16    47 1   
    42    16    48 1   
    43    17    31 1   
    44    17    32 1   
    45    18    33 1   
    46    18    34 1   
    47    19    20 ar  
    48    19    26 ar  
    49    20    27 1   
    50    20    28 ar  
    51    21    49 1   
    52    21    50 1   
    53    25    51 1   
    54    27    52 1   
    55    27    53 1   
    56    29    54 1   
@<TRIPOS>SUBSTRUCTURE
     1 G3V         1 TEMP              0 ****  ****    0 ROOT
