@<TRIPOS>MOLECULE
G3V
   54    56     1     0     0
SMALL
abcg2


@<TRIPOS>ATOM
      1 C02         -5.5720     2.7080    -1.0730 ca         1 G3V       0.444900
      2 C04         -4.6230     0.6610    -1.0630 ca         1 G3V       0.118000
      3 C06         -3.6590    -1.3940    -1.0060 ca         1 G3V       0.111900
      4 C07         -3.6710    -1.4000     0.4070 ca         1 G3V       0.237300
      5 C08         -3.1440    -2.5720     1.1950 c3         1 G3V       0.205500
      6 C10         -1.7090    -4.3300     0.2020 c3         1 G3V       0.468800
      7 C12         -0.7590    -2.1700     0.8200 ca         1 G3V       0.300000
      8 C13          0.4260    -2.4360     0.1150 ca         1 G3V      -0.187000
      9 C14          1.5160    -1.5900     0.2110 ca         1 G3V      -0.046000
     10 C15          1.4800    -0.4400     0.9970 ca         1 G3V      -0.136600
     11 C16          0.3050    -0.1760     1.6960 ca         1 G3V      -0.046000
     12 C17         -0.7960    -1.0060     1.6060 ca         1 G3V      -0.187000
     13 C18          2.6340     0.4900     1.1460 c          1 G3V       0.597700
     14 C21          4.6470     1.4100     0.1280 c3         1 G3V      -0.049300
     15 C22          5.6620     0.9710    -0.9280 c3         1 G3V      -0.057400
     16 C23          6.2720    -0.3960    -0.6560 c3         1 G3V      -0.200400
     17 C24          7.3870    -0.8290    -1.6250 c          1 G3V       0.712000
     18 C27          4.1940     2.8680    -0.1370 c          1 G3V       0.719000
     19 C31         -4.6330     0.6460     0.3420 ca         1 G3V       0.032000
     20 C32         -5.1760     1.8150     0.9900 ca         1 G3V       0.465900
     21 N01         -6.0720     3.7500    -1.7520 nv         1 G3V      -1.071900
     22 N03         -5.0930     1.6920    -1.7760 nb         1 G3V      -0.272000
     23 N05         -4.1200    -0.4020    -1.7250 nb         1 G3V      -0.116000
     24 N09         -1.8400    -3.0240     0.7600 nh         1 G3V      -0.847400
     25 N20          3.5420     0.4780     0.1570 ns         1 G3V      -0.422900
     26 N30         -4.1620    -0.3730     1.0590 nb         1 G3V      -0.615000
     27 N33         -5.2080     1.8670     2.3160 nv         1 G3V      -1.060900
     28 N34         -5.6340     2.8170     0.2740 nb         1 G3V      -0.360000
     29 O11         -1.8270    -4.2790    -1.2030 oh         1 G3V      -0.688000
     30 O19          2.7490     1.2010     2.1400 o          1 G3V      -0.638100
     31 O25          7.7720    -0.0050    -2.4780 o          1 G3V      -0.761000
     32 O26          7.8280    -1.9870    -1.4660 o          1 G3V      -0.761000
     33 O28          5.0340     3.7430     0.1550 o          1 G3V      -0.742500
     34 O29          3.0710     3.0420    -0.6420 o          1 G3V      -0.742500
     35 H1          -3.2520    -2.2450    -1.5410 h4         1 G3V       0.052100
     36 H2          -3.1500    -2.3030     2.2560 h1         1 G3V       0.049200
     37 H3          -3.8340    -3.4110     1.0930 h1         1 G3V       0.049200
     38 H4          -0.7430    -4.7520     0.4990 h2         1 G3V       0.024200
     39 H5          -2.4880    -4.9610     0.6390 h2         1 G3V       0.024200
     40 H6           0.5010    -3.2950    -0.5360 ha         1 G3V       0.103000
     41 H7           2.4090    -1.8580    -0.3410 ha         1 G3V       0.131000
     42 H8           0.2440     0.7020     2.3270 ha         1 G3V       0.131000
     43 H9          -1.6790    -0.7390     2.1680 ha         1 G3V       0.103000
     44 H10          5.1410     1.3810     1.1030 h1         1 G3V       0.054700
     45 H11          5.1850     0.9820    -1.9150 hc         1 G3V       0.050700
     46 H12          6.4500     1.7230    -0.9640 hc         1 G3V       0.050700
     47 H13          6.6810    -0.4110     0.3610 hc         1 G3V       0.008200
     48 H14          5.4980    -1.1700    -0.6590 hc         1 G3V       0.008200
     49 H15         -6.3380     4.5860    -1.2640 hn         1 G3V       0.499000
     50 H16         -5.9600     3.7970    -2.7500 hn         1 G3V       0.499000
     51 H17          3.2750     0.0640    -0.7210 hn         1 G3V       0.297500
     52 H18         -4.8580     1.0990     2.8630 hn         1 G3V       0.507500
     53 H19         -5.5810     2.6720     2.7890 hn         1 G3V       0.507500
     54 H20         -1.7360    -5.1760    -1.5440 ho         1 G3V       0.445000
@<TRIPOS>BOND
     1     1    21 1   
     2     1    22 ar  
     3     1    28 ar  
     4     2    19 ar  
     5     2    22 ar  
     6     2    23 ar  
     7     3     4 ar  
     8     3    23 ar  
     9     3    35 1   
    10     4     5 1   
    11     4    26 ar  
    12     5    24 1   
    13     5    36 1   
    14     5    37 1   
    15     6    24 1   
    16     6    29 1   
    17     6    38 1   
    18     6    39 1   
    19     7     8 ar  
    20     7    12 ar  
    21     7    24 1   
    22     8     9 ar  
    23     8    40 1   
    24     9    10 ar  
    25     9    41 1   
    26    10    11 ar  
    27    10    13 1   
    28    11    12 ar  
    29    11    42 1   
    30    12    43 1   
    31    13    25 1   
    32    13    30 2   
    33    14    15 1   
    34    14    18 1   
    35    14    25 1   
    36    14    44 1   
    37    15    16 1   
    38    15    45 1   
    39    15    46 1   
    40    16    17 1   
    41    16    47 1   
    42    16    48 1   
    43    17    31 1   
    44    17    32 1   
    45    18    33 1   
    46    18    34 1   
    47    19    20 ar  
    48    19    26 ar  
    49    20    27 1   
    50    20    28 ar  
    51    21    49 1   
    52    21    50 1   
    53    25    51 1   
    54    27    52 1   
    55    27    53 1   
    56    29    54 1   
@<TRIPOS>SUBSTRUCTURE
     1 G3V         1 TEMP              0 ****  ****    0 ROOT
