@<TRIPOS>MOLECULE
G3W
   44    46     1     0     0
SMALL
No Charge or Current Charge


@<TRIPOS>ATOM
      1 C13         -1.4770    -1.6970    -0.1920 ca         1 G3W      -0.063000
      2 C15         -1.7380     0.6190     0.5120 ca         1 G3W      -0.063000
      3 C17         -3.5740    -0.5310    -0.6060 ca         1 G3W       0.141100
      4 C20         -6.8770     0.7120    -1.3440 ca         1 G3W      -0.116500
      5 C21         -7.9810     1.3580    -0.7590 ca         1 G3W      -0.102500
      6 C22         -8.1240     1.3770     0.6390 ca         1 G3W      -0.111000
      7 C24         -6.0610     0.1010     0.8690 ca         1 G3W      -0.116500
      8 C02          7.9500     0.1480     0.3420 ca         1 G3W       0.168000
      9 C03          7.3680    -1.0810    -0.0040 ca         1 G3W      -0.150000
     10 C04          6.0170    -1.1320    -0.3920 ca         1 G3W      -0.082000
     11 C05          7.1910     1.3270     0.3020 ca         1 G3W      -0.150000
     12 C06          5.8400     1.2780    -0.0870 ca         1 G3W      -0.082000
     13 C07          5.2480     0.0480    -0.4370 ca         1 G3W      -0.095300
     14 C08          3.7830    -0.0070    -0.8530 c3         1 G3W      -0.032100
     15 C09          2.8500    -0.2530     0.3500 c3         1 G3W       0.157800
     16 C12         -0.9480    -0.5450     0.4240 ca         1 G3W      -0.125300
     17 C14         -2.7850    -1.6860    -0.7090 ca         1 G3W      -0.165500
     18 C16         -3.0460     0.6280    -0.0040 ca         1 G3W      -0.165500
     19 C19         -5.9110     0.0940    -0.5330 ca         1 G3W       0.095100
     20 C23         -7.1660     0.7470     1.4530 ca         1 G3W      -0.102500
     21 N10          1.4410    -0.3060    -0.0860 n7         1 G3W      -0.859400
     22 O18         -4.8470    -0.5430    -1.1320 os         1 G3W      -0.256200
     23 H1          -0.8720    -2.5970    -0.2730 ha         1 G3W       0.116000
     24 H2          -1.3380     1.5170     0.9790 ha         1 G3W       0.116000
     25 H3          -6.7670     0.6950    -2.4260 ha         1 G3W       0.129000
     26 H4          -8.7260     1.8410    -1.3890 ha         1 G3W       0.117000
     27 H5          -8.9780     1.8750     1.0920 ha         1 G3W       0.116000
     28 H6          -5.3300    -0.3930     1.5030 ha         1 G3W       0.129000
     29 H7           7.9620    -1.9910     0.0310 ha         1 G3W       0.131500
     30 H8           5.5690    -2.0880    -0.6570 ha         1 G3W       0.116500
     31 H9           7.6490     2.2750     0.5720 ha         1 G3W       0.131500
     32 H10          5.2550     2.1950    -0.1140 ha         1 G3W       0.116500
     33 H11          3.4960     0.9290    -1.3460 hc         1 G3W       0.055700
     34 H12          3.6320    -0.8030    -1.5920 hc         1 G3W       0.055700
     35 H13          3.1350    -1.1990     0.8320 h1         1 G3W       0.032700
     36 H14          2.9940     0.5520     1.0840 h1         1 G3W       0.032700
     37 H15          0.5490     0.2050     1.7710 h1         1 G3W       0.035700
     38 H16          0.6560    -1.5340     1.4570 h1         1 G3W       0.035700
     39 H17         -3.1890    -2.5760    -1.1850 ha         1 G3W       0.127500
     40 H18         -3.6430     1.5340     0.0600 ha         1 G3W       0.127500
     41 H19         -7.2800     0.7560     2.5350 ha         1 G3W       0.117000
     42 H20          1.2020     0.5950    -0.5150 hn         1 G3W       0.408000
     43 C11          0.4650    -0.5590     0.9860 c3         1 G3W       0.211100
     44 F01          9.2470     0.1950     0.7150 f          1 G3W      -0.181000
@<TRIPOS>BOND
     1     1    16 ar  
     2     1    17 ar  
     3     1    23 1   
     4     2    16 ar  
     5     2    18 ar  
     6     2    24 1   
     7     3    17 ar  
     8     3    18 ar  
     9     3    22 1   
    10     4     5 ar  
    11     4    19 ar  
    12     4    25 1   
    13     5     6 ar  
    14     5    26 1   
    15     6    20 ar  
    16     6    27 1   
    17     7    19 ar  
    18     7    20 ar  
    19     7    28 1   
    20     8     9 ar  
    21     8    11 ar  
    22     8    44 1   
    23     9    10 ar  
    24     9    29 1   
    25    10    13 ar  
    26    10    30 1   
    27    11    12 ar  
    28    11    31 1   
    29    12    13 ar  
    30    12    32 1   
    31    13    14 1   
    32    14    15 1   
    33    14    33 1   
    34    14    34 1   
    35    15    21 1   
    36    15    35 1   
    37    15    36 1   
    38    16    43 1   
    39    17    39 1   
    40    18    40 1   
    41    19    22 1   
    42    20    41 1   
    43    21    42 1   
    44    21    43 1   
    45    37    43 1   
    46    38    43 1   
@<TRIPOS>SUBSTRUCTURE
     1 G3W         1 TEMP              0 ****  ****    0 ROOT
