@<TRIPOS>MOLECULE
G3W
   44    46     1     0     0
SMALL
bcc


@<TRIPOS>ATOM
      1 C13         -1.3660    -1.7360    -0.2010 ca         1 G3W      -0.081000
      2 C15         -1.8560     0.2680     0.9920 ca         1 G3W      -0.081000
      3 C17         -3.5990    -0.8510    -0.2140 ca         1 G3W       0.141100
      4 C20         -6.0600     0.9890    -1.1840 ca         1 G3W      -0.134500
      5 C21         -7.0530     1.9070    -0.8690 ca         1 G3W      -0.120500
      6 C22         -7.7960     1.7630     0.2950 ca         1 G3W      -0.129000
      7 C24         -6.5600    -0.2330     0.8380 ca         1 G3W      -0.134500
      8 C02          7.7370     0.3580     0.2040 ca         1 G3W       0.132900
      9 C03          7.2260    -0.9050    -0.0200 ca         1 G3W      -0.168000
     10 C04          5.9020    -1.0230    -0.4190 ca         1 G3W      -0.100000
     11 C05          6.9720     1.4960     0.0410 ca         1 G3W      -0.168000
     12 C06          5.6500     1.3530    -0.3580 ca         1 G3W      -0.100000
     13 C07          5.0940     0.0980    -0.5940 ca         1 G3W      -0.095300
     14 C08          3.6470    -0.0460    -0.9710 c3         1 G3W      -0.032100
     15 C09          2.7710    -0.2620     0.2610 c3         1 G3W       0.157800
     16 C12         -0.9280    -0.6920     0.6140 ca         1 G3W      -0.125300
     17 C14         -2.6830    -1.8250    -0.6100 ca         1 G3W      -0.183500
     18 C16         -3.1860     0.2020     0.5900 ca         1 G3W      -0.183500
     19 C19         -5.8240    -0.0760    -0.3280 ca         1 G3W       0.095100
     20 C23         -7.5490     0.6920     1.1440 ca         1 G3W      -0.120500
     21 N10          1.3740    -0.3800    -0.1090 n7         1 G3W      -0.804200
     22 O18         -4.8760    -1.0120    -0.6620 os         1 G3W      -0.256200
     23 H1          -0.6640    -2.4980    -0.5200 ha         1 G3W       0.134000
     24 H2          -1.5440     1.0970     1.6170 ha         1 G3W       0.134000
     25 H3          -5.4790     1.0930    -2.0920 ha         1 G3W       0.147000
     26 H4          -7.2430     2.7360    -1.5380 ha         1 G3W       0.135000
     27 H5          -8.5680     2.4820     0.5380 ha         1 G3W       0.134000
     28 H6          -6.3680    -1.0700     1.4960 ha         1 G3W       0.147000
     29 H7           7.8480    -1.7810     0.1110 ha         1 G3W       0.149500
     30 H8           5.4960    -2.0110    -0.6000 ha         1 G3W       0.134500
     31 H9           7.3960     2.4750     0.2200 ha         1 G3W       0.149500
     32 H10          5.0430     2.2410    -0.4900 ha         1 G3W       0.134500
     33 H11          3.3110     0.8510    -1.4990 hc         1 G3W       0.055700
     34 H12          3.5130    -0.8870    -1.6550 hc         1 G3W       0.055700
     35 H13          3.0750    -1.1880     0.7560 h1         1 G3W       0.032700
     36 H14          2.9540     0.5500     0.9830 h1         1 G3W       0.032700
     37 H15          0.6140     0.1820     1.8060 h1         1 G3W       0.035700
     38 H16          0.8160    -1.5380     1.5120 h1         1 G3W       0.035700
     39 H17         -3.0100    -2.6470    -1.2350 ha         1 G3W       0.145500
     40 H18         -3.8750     0.9720     0.9090 ha         1 G3W       0.145500
     41 H19         -8.1270     0.5750     2.0510 ha         1 G3W       0.135000
     42 H20          1.0840     0.4770    -0.5670 hn         1 G3W       0.352800
     43 C11          0.5100    -0.6000     1.0380 c3         1 G3W       0.211100
     44 F01          9.0200     0.4840     0.5910 f          1 G3W      -0.145900
@<TRIPOS>BOND
     1     1    16 ar  
     2     1    17 ar  
     3     1    23 1   
     4     2    16 ar  
     5     2    18 ar  
     6     2    24 1   
     7     3    17 ar  
     8     3    18 ar  
     9     3    22 1   
    10     4     5 ar  
    11     4    19 ar  
    12     4    25 1   
    13     5     6 ar  
    14     5    26 1   
    15     6    20 ar  
    16     6    27 1   
    17     7    19 ar  
    18     7    20 ar  
    19     7    28 1   
    20     8     9 ar  
    21     8    11 ar  
    22     8    44 1   
    23     9    10 ar  
    24     9    29 1   
    25    10    13 ar  
    26    10    30 1   
    27    11    12 ar  
    28    11    31 1   
    29    12    13 ar  
    30    12    32 1   
    31    13    14 1   
    32    14    15 1   
    33    14    33 1   
    34    14    34 1   
    35    15    21 1   
    36    15    35 1   
    37    15    36 1   
    38    16    43 1   
    39    17    39 1   
    40    18    40 1   
    41    19    22 1   
    42    20    41 1   
    43    21    42 1   
    44    21    43 1   
    45    37    43 1   
    46    38    43 1   
@<TRIPOS>SUBSTRUCTURE
     1 G3W         1 TEMP              0 ****  ****    0 ROOT
