@<TRIPOS>MOLECULE
G3X
   63    67     1     0     0
SMALL
No Charge or Current Charge


@<TRIPOS>ATOM
      1 C1          -2.9530    -1.7490    -1.0540 c2         1 G3X      -0.173200
      2 C2          -4.2170    -2.1300    -1.3310 c2         1 G3X      -0.262200
      3 C3          -5.4150    -1.9880    -0.4120 c6         1 G3X       0.213500
      4 C4          -5.0020    -1.7230     1.0510 c6         1 G3X      -0.068400
      5 O5          -4.2060     0.6270     0.8030 os         1 G3X      -0.294100
      6 C6          -2.8510     2.5710     0.1590 ca         1 G3X       0.117100
      7 C7          -1.6000     3.0050    -0.3360 ca         1 G3X      -0.165000
      8 C8          -0.5970     2.0630    -0.6520 ca         1 G3X      -0.107000
      9 C9           0.2610    -0.3210    -0.9040 c3         1 G3X       0.223100
     10 N10          0.7330    -1.2550     0.1580 n3         1 G3X      -0.722600
     11 C11         -0.2150    -2.3760     0.4000 c3         1 G3X       0.180800
     12 C12         -1.5450    -2.0040     1.0920 c3         1 G3X      -0.052400
     13 C13         -3.0470     1.1890     0.3370 ca         1 G3X       0.103100
     14 C14         -2.0640     0.2670     0.0290 ca         1 G3X      -0.123300
     15 C15         -0.8170     0.6770    -0.4790 ca         1 G3X      -0.050300
     16 C16         -3.7380     4.8710     0.3230 c3         1 G3X       0.146900
     17 O17         -3.8730     3.4480     0.4790 os         1 G3X      -0.319100
     18 O18         -6.2400    -0.9360    -0.9060 oh         1 G3X      -0.638000
     19 C19          2.1110    -1.7630    -0.0850 c3         1 G3X       0.173800
     20 C20          3.2340    -0.7080     0.0470 c3         1 G3X      -0.080400
     21 C21          4.6400    -1.3420    -0.0420 c3         1 G3X       0.169800
     22 N22          5.7680    -0.4170     0.2420 n3         1 G3X      -0.718600
     23 C23          5.8870     0.7030    -0.7400 c6         1 G3X       0.168300
     24 C24          7.0170     1.6900    -0.3540 c6         1 G3X      -0.075900
     25 C25          8.3680     0.9580    -0.1940 c6         1 G3X      -0.074400
     26 C26          8.2170    -0.2180     0.7960 c6         1 G3X      -0.075900
     27 C27          7.0580    -1.1530     0.3730 c6         1 G3X       0.168300
     28 C41         -3.8180    -0.7380     1.1570 c5         1 G3X       0.167300
     29 C42         -2.5450    -1.1290     0.2950 c5         1 G3X       0.008500
     30 H1          -2.1900    -1.9020    -1.8190 ha         1 G3X       0.175000
     31 H2          -4.4350    -2.5830    -2.3000 ha         1 G3X       0.171000
     32 H3          -5.9850    -2.9290    -0.4360 h1         1 G3X       0.028700
     33 H4          -5.8570    -1.3600     1.6360 hc         1 G3X       0.062700
     34 H4A         -4.7000    -2.6750     1.5070 hc         1 G3X       0.062700
     35 H7          -1.3890     4.0600    -0.4900 ha         1 G3X       0.116000
     36 H8           0.3540     2.4150    -1.0460 ha         1 G3X       0.110000
     37 H9           1.1000     0.2710    -1.2880 h1         1 G3X       0.035700
     38 H9A         -0.1070    -0.8910    -1.7670 h1         1 G3X       0.035700
     39 H11         -0.4290    -2.9010    -0.5400 h1         1 G3X       0.028700
     40 H11A         0.2670    -3.1130     1.0570 h1         1 G3X       0.028700
     41 H12         -2.0440    -2.9420     1.3630 hc         1 G3X       0.052200
     42 H12A        -1.3010    -1.5110     2.0400 hc         1 G3X       0.052200
     43 H16         -2.9170     5.2550     0.9420 h1         1 G3X       0.038367
     44 H16A        -3.5410     5.1310    -0.7250 h1         1 G3X       0.038367
     45 H16B        -4.6610     5.3760     0.6310 h1         1 G3X       0.038367
     46 HO18        -6.2770    -1.0540    -1.8780 ho         1 G3X       0.437000
     47 H19          2.3350    -2.5540     0.6440 h1         1 G3X       0.026700
     48 H19A         2.1700    -2.2240    -1.0800 h1         1 G3X       0.026700
     49 H20          3.1300     0.0460    -0.7370 hc         1 G3X       0.056700
     50 H20A         3.1320    -0.1970     1.0120 hc         1 G3X       0.056700
     51 H21          4.6720    -2.1690     0.6800 h1         1 G3X       0.025700
     52 H21A         4.7630    -1.7850    -1.0390 h1         1 G3X       0.025700
     53 H23          6.0860     0.3050    -1.7460 h1         1 G3X       0.027950
     54 H23A         4.9500     1.2740    -0.7980 h1         1 G3X       0.027950
     55 H24          7.1030     2.4740    -1.1180 hc         1 G3X       0.045700
     56 H24A         6.7550     2.1950     0.5860 hc         1 G3X       0.045700
     57 H25          8.7050     0.5820    -1.1710 hc         1 G3X       0.037700
     58 H25A         9.1390     1.6560     0.1600 hc         1 G3X       0.037700
     59 H26          9.1540    -0.7880     0.8480 hc         1 G3X       0.045700
     60 H26A         8.0270     0.1680     1.8060 hc         1 G3X       0.045700
     61 H27          6.9640    -1.9530     1.1220 h1         1 G3X       0.027950
     62 H27A         7.3170    -1.6350    -0.5820 h1         1 G3X       0.027950
     63 H41         -3.5280    -0.7010     2.2160 h1         1 G3X       0.055700
@<TRIPOS>BOND
     1     1     2 2   
     2     1    29 1   
     3     1    30 1   
     4     2     3 1   
     5     2    31 1   
     6     3     4 1   
     7     3    18 1   
     8     3    32 1   
     9     4    28 1   
    10     4    33 1   
    11     4    34 1   
    12     5    13 1   
    13     5    28 1   
    14     6     7 ar  
    15     6    13 ar  
    16     6    17 1   
    17     7     8 ar  
    18     7    35 1   
    19     8    15 ar  
    20     8    36 1   
    21     9    10 1   
    22     9    15 1   
    23     9    37 1   
    24     9    38 1   
    25    10    11 1   
    26    10    19 1   
    27    11    12 1   
    28    11    39 1   
    29    11    40 1   
    30    12    29 1   
    31    12    41 1   
    32    12    42 1   
    33    13    14 ar  
    34    14    15 ar  
    35    14    29 1   
    36    16    17 1   
    37    16    43 1   
    38    16    44 1   
    39    16    45 1   
    40    18    46 1   
    41    19    20 1   
    42    19    47 1   
    43    19    48 1   
    44    20    21 1   
    45    20    49 1   
    46    20    50 1   
    47    21    22 1   
    48    21    51 1   
    49    21    52 1   
    50    22    23 1   
    51    22    27 1   
    52    23    24 1   
    53    23    53 1   
    54    23    54 1   
    55    24    25 1   
    56    24    55 1   
    57    24    56 1   
    58    25    26 1   
    59    25    57 1   
    60    25    58 1   
    61    26    27 1   
    62    26    59 1   
    63    26    60 1   
    64    27    61 1   
    65    27    62 1   
    66    28    29 1   
    67    28    63 1   
@<TRIPOS>SUBSTRUCTURE
     1 G3X         1 TEMP              0 ****  ****    0 ROOT
