@<TRIPOS>MOLECULE
G3X
   63    67     1     0     0
SMALL
abcg2


@<TRIPOS>ATOM
      1 C1          -2.9810    -1.7470    -0.9850 c2         1 G3X      -0.173200
      2 C2          -4.2540    -2.0520    -1.2110 c2         1 G3X      -0.262200
      3 C3          -5.3620    -1.8550    -0.2160 c6         1 G3X       0.213500
      4 C4          -4.8110    -1.6320     1.1820 c6         1 G3X      -0.068400
      5 O5          -3.9450     0.6240     0.9030 os         1 G3X      -0.294100
      6 C6          -2.6770     2.5260     0.0880 ca         1 G3X       0.117100
      7 C7          -1.4880     2.9050    -0.5280 ca         1 G3X      -0.165000
      8 C8          -0.5320     1.9560    -0.8930 ca         1 G3X      -0.107000
      9 C9           0.2990    -0.4220    -1.0970 c3         1 G3X       0.223100
     10 N10          0.7350    -1.3110    -0.0270 n3         1 G3X      -0.722600
     11 C11         -0.1890    -2.4140     0.2000 c3         1 G3X       0.180800
     12 C12         -1.4410    -2.0420     0.9870 c3         1 G3X      -0.052400
     13 C13         -2.8570     1.1620     0.3150 ca         1 G3X       0.103100
     14 C14         -1.9090     0.2310    -0.0510 ca         1 G3X      -0.123300
     15 C15         -0.7220     0.5970    -0.6700 ca         1 G3X      -0.050300
     16 C16         -3.4850     4.7390     0.2780 c3         1 G3X       0.146900
     17 O17         -3.6620     3.3530     0.4890 os         1 G3X      -0.319100
     18 O18         -6.1850    -0.7570    -0.5730 oh         1 G3X      -0.638000
     19 C19          2.0950    -1.7850    -0.2520 c3         1 G3X       0.173800
     20 C20          3.1530    -0.7270     0.0380 c3         1 G3X      -0.080400
     21 C21          4.5540    -1.2970    -0.1470 c3         1 G3X       0.169800
     22 N22          5.6110    -0.3800     0.2400 n3         1 G3X      -0.718600
     23 C23          5.7590     0.7230    -0.6960 c6         1 G3X       0.168300
     24 C24          6.7950     1.7270    -0.2110 c6         1 G3X      -0.075900
     25 C25          8.1370     1.0520     0.0360 c6         1 G3X      -0.074400
     26 C26          7.9500    -0.1480     0.9560 c6         1 G3X      -0.075900
     27 C27          6.8730    -1.0780     0.4190 c6         1 G3X       0.168300
     28 C41         -3.6000    -0.7320     1.2410 c5         1 G3X       0.167300
     29 C42         -2.4540    -1.1340     0.2850 c5         1 G3X       0.008500
     30 H1          -2.2530    -1.9120    -1.7720 ha         1 G3X       0.175000
     31 H2          -4.5350    -2.4550    -2.1790 ha         1 G3X       0.171000
     32 H3          -5.9650    -2.7720    -0.1900 h1         1 G3X       0.028700
     33 H4          -5.5970    -1.2610     1.8440 hc         1 G3X       0.062700
     34 H4A         -4.5080    -2.6010     1.5880 hc         1 G3X       0.062700
     35 H7          -1.2770     3.9480    -0.7220 ha         1 G3X       0.116000
     36 H8           0.3840     2.3000    -1.3590 ha         1 G3X       0.110000
     37 H9           1.1640     0.1170    -1.4850 h1         1 G3X       0.035700
     38 H9A         -0.0890    -1.0000    -1.9530 h1         1 G3X       0.035700
     39 H11         -0.4660    -2.9150    -0.7430 h1         1 G3X       0.028700
     40 H11A         0.3330    -3.1660     0.7940 h1         1 G3X       0.028700
     41 H12         -1.9470    -2.9730     1.2620 hc         1 G3X       0.052200
     42 H12A        -1.1330    -1.5620     1.9190 hc         1 G3X       0.052200
     43 H16         -2.6120     5.1250     0.8120 h1         1 G3X       0.038367
     44 H16A        -3.3820     4.9810    -0.7830 h1         1 G3X       0.038367
     45 H16B        -4.3760     5.2280     0.6640 h1         1 G3X       0.038367
     46 HO18        -6.5680    -0.9420    -1.4360 ho         1 G3X       0.437000
     47 H19          2.2700    -2.6260     0.4230 h1         1 G3X       0.026700
     48 H19A         2.2320    -2.1790    -1.2740 h1         1 G3X       0.026700
     49 H20          3.0100     0.1400    -0.6110 hc         1 G3X       0.056700
     50 H20A         3.0370    -0.3790     1.0670 hc         1 G3X       0.056700
     51 H21          4.6440    -2.1870     0.4830 h1         1 G3X       0.025700
     52 H21A         4.6780    -1.6450    -1.1880 h1         1 G3X       0.025700
     53 H23          6.0490     0.3550    -1.6980 h1         1 G3X       0.027950
     54 H23A         4.8000     1.2280    -0.8160 h1         1 G3X       0.027950
     55 H24          6.8910     2.5270    -0.9480 hc         1 G3X       0.045700
     56 H24A         6.4380     2.1870     0.7160 hc         1 G3X       0.045700
     57 H25          8.5570     0.7160    -0.9190 hc         1 G3X       0.037700
     58 H25A         8.8520     1.7590     0.4620 hc         1 G3X       0.037700
     59 H26          8.8840    -0.7030     1.0670 hc         1 G3X       0.045700
     60 H26A         7.6610     0.1950     1.9540 hc         1 G3X       0.045700
     61 H27          6.7180    -1.9030     1.1190 h1         1 G3X       0.027950
     62 H27A         7.2240    -1.5270    -0.5280 h1         1 G3X       0.027950
     63 H41         -3.2110    -0.7200     2.2680 h1         1 G3X       0.055700
@<TRIPOS>BOND
     1     1     2 2   
     2     1    29 1   
     3     1    30 1   
     4     2     3 1   
     5     2    31 1   
     6     3     4 1   
     7     3    18 1   
     8     3    32 1   
     9     4    28 1   
    10     4    33 1   
    11     4    34 1   
    12     5    13 1   
    13     5    28 1   
    14     6     7 ar  
    15     6    13 ar  
    16     6    17 1   
    17     7     8 ar  
    18     7    35 1   
    19     8    15 ar  
    20     8    36 1   
    21     9    10 1   
    22     9    15 1   
    23     9    37 1   
    24     9    38 1   
    25    10    11 1   
    26    10    19 1   
    27    11    12 1   
    28    11    39 1   
    29    11    40 1   
    30    12    29 1   
    31    12    41 1   
    32    12    42 1   
    33    13    14 ar  
    34    14    15 ar  
    35    14    29 1   
    36    16    17 1   
    37    16    43 1   
    38    16    44 1   
    39    16    45 1   
    40    18    46 1   
    41    19    20 1   
    42    19    47 1   
    43    19    48 1   
    44    20    21 1   
    45    20    49 1   
    46    20    50 1   
    47    21    22 1   
    48    21    51 1   
    49    21    52 1   
    50    22    23 1   
    51    22    27 1   
    52    23    24 1   
    53    23    53 1   
    54    23    54 1   
    55    24    25 1   
    56    24    55 1   
    57    24    56 1   
    58    25    26 1   
    59    25    57 1   
    60    25    58 1   
    61    26    27 1   
    62    26    59 1   
    63    26    60 1   
    64    27    61 1   
    65    27    62 1   
    66    28    29 1   
    67    28    63 1   
@<TRIPOS>SUBSTRUCTURE
     1 G3X         1 TEMP              0 ****  ****    0 ROOT
