@<TRIPOS>MOLECULE
G3Y
   32    34     1     0     0
SMALL
abcg2


@<TRIPOS>ATOM
      1 C4         -17.7160   -26.1590   -33.9020 ca         1 G3Y      -0.110000
      2 C5         -18.3960   -27.3630   -34.0410 ca         1 G3Y      -0.098500
      3 C6         -15.9520   -23.6410   -33.7800 c6         1 G3Y      -0.007700
      4 C7         -14.7930   -24.5740   -33.4040 c6         1 G3Y       0.182300
      5 C8         -13.8120   -23.9320   -32.3980 c6         1 G3Y       0.119500
      6 C9         -13.6870   -22.4040   -32.6620 c5         1 G3Y       0.084300
      7 C10        -14.6460   -21.5140   -31.8730 c5         1 G3Y       0.121600
      8 C11        -15.4890   -22.1660   -33.8790 c5         1 G3Y       0.388300
      9 O2         -14.1690   -24.9210   -34.6190 oh         1 G3Y      -0.650000
     10 N          -14.1480   -24.3340   -31.0460 n8         1 G3Y      -1.006200
     11 O1         -14.1050   -22.1220   -33.9950 os         1 G3Y      -0.420000
     12 O          -15.7960   -21.4490   -32.7090 os         1 G3Y      -0.457000
     13 S          -17.3190   -23.7020   -32.5890 ss         1 G3Y      -0.128000
     14 C3         -18.0600   -25.2790   -32.8790 ca         1 G3Y      -0.102000
     15 C2         -19.0900   -25.6280   -32.0010 ca         1 G3Y      -0.110000
     16 C1         -19.7630   -26.8290   -32.1500 ca         1 G3Y      -0.098500
     17 C          -19.4190   -27.7060   -33.1720 ca         1 G3Y      -0.114000
     18 H1         -16.9230   -25.9330   -34.6010 ha         1 G3Y       0.120500
     19 H2         -18.1130   -28.0370   -34.8400 ha         1 G3Y       0.113000
     20 H3         -16.3370   -23.9380   -34.7580 h1         1 G3Y       0.101700
     21 H4         -15.1970   -25.4690   -32.9150 h1         1 G3Y       0.064700
     22 H5         -12.8280   -24.3640   -32.6070 h1         1 G3Y       0.066700
     23 H6         -12.6520   -22.0800   -32.5490 h1         1 G3Y       0.091700
     24 H7         -14.9060   -21.9050   -30.8890 h1         1 G3Y       0.057700
     25 H8         -14.2300   -20.5130   -31.7410 h1         1 G3Y       0.057700
     26 H9         -15.9470   -21.6720   -34.7370 h2         1 G3Y       0.114700
     27 H10        -13.4870   -25.5750   -34.4330 ho         1 G3Y       0.447000
     28 H11        -13.5080   -23.9230   -30.3790 hn         1 G3Y       0.411000
     29 H12        -15.0780   -24.0250   -30.7910 hn         1 G3Y       0.411000
     30 H14        -19.3670   -24.9570   -31.1960 ha         1 G3Y       0.120500
     31 H15        -20.5590   -27.0800   -31.4600 ha         1 G3Y       0.113000
     32 H16        -19.9440   -28.6460   -33.2850 ha         1 G3Y       0.114000
@<TRIPOS>BOND
     1     1     2 ar  
     2     1    14 ar  
     3     1    18 1   
     4     2    17 ar  
     5     2    19 1   
     6     3     4 1   
     7     3     8 1   
     8     3    13 1   
     9     3    20 1   
    10     4     5 1   
    11     4     9 1   
    12     4    21 1   
    13     5     6 1   
    14     5    10 1   
    15     5    22 1   
    16     6     7 1   
    17     6    11 1   
    18     6    23 1   
    19     7    12 1   
    20     7    24 1   
    21     7    25 1   
    22     8    11 1   
    23     8    12 1   
    24     8    26 1   
    25     9    27 1   
    26    10    28 1   
    27    10    29 1   
    28    13    14 1   
    29    14    15 ar  
    30    15    16 ar  
    31    15    30 1   
    32    16    17 ar  
    33    16    31 1   
    34    17    32 1   
@<TRIPOS>SUBSTRUCTURE
     1 G3Y         1 TEMP              0 ****  ****    0 ROOT
