@<TRIPOS>MOLECULE
G3Y
   32    34     1     0     0
SMALL
No Charge or Current Charge


@<TRIPOS>ATOM
      1 C4         -18.0200   -26.0230   -34.5620 ca         1 G3Y      -0.110000
      2 C5         -18.4060   -27.3670   -34.7120 ca         1 G3Y      -0.098500
      3 C6         -16.1210   -23.5720   -33.4780 c6         1 G3Y      -0.007700
      4 C7         -15.3250   -24.1620   -32.2770 c6         1 G3Y       0.182300
      5 C8         -13.7990   -23.8480   -32.3970 c6         1 G3Y       0.119500
      6 C9         -13.6140   -22.3470   -32.7840 c5         1 G3Y       0.084300
      7 C10        -14.4630   -21.3610   -31.9240 c5         1 G3Y       0.121600
      8 C11        -15.6240   -22.1250   -33.8160 c5         1 G3Y       0.388300
      9 O2         -15.4690   -25.5810   -32.1510 oh         1 G3Y      -0.650000
     10 N          -13.0790   -24.3680   -31.1950 n8         1 G3Y      -1.006200
     11 O1         -14.2130   -22.1500   -34.0800 os         1 G3Y      -0.420000
     12 O          -15.7050   -21.2300   -32.6770 os         1 G3Y      -0.457000
     13 S          -17.9630   -23.5780   -33.2170 ss         1 G3Y      -0.128000
     14 C3         -18.4230   -25.2960   -33.4250 ca         1 G3Y      -0.102000
     15 C2         -19.2280   -25.9140   -32.4510 ca         1 G3Y      -0.110000
     16 C1         -19.6130   -27.2580   -32.6010 ca         1 G3Y      -0.098500
     17 C          -19.2010   -27.9860   -33.7310 ca         1 G3Y      -0.114000
     18 H1         -17.4190   -25.5520   -35.3350 ha         1 G3Y       0.120500
     19 H2         -18.0930   -27.9280   -35.5900 ha         1 G3Y       0.113000
     20 H3         -15.9160   -24.1870   -34.3620 h1         1 G3Y       0.101700
     21 H4         -15.7040   -23.6840   -31.3610 h1         1 G3Y       0.064700
     22 H5         -13.4150   -24.4350   -33.2470 h1         1 G3Y       0.066700
     23 H6         -12.5470   -22.0860   -32.8180 h1         1 G3Y       0.091700
     24 H7         -14.6650   -21.7260   -30.9090 h1         1 G3Y       0.057700
     25 H8         -13.9870   -20.3740   -31.8530 h1         1 G3Y       0.057700
     26 H9         -16.1700   -21.7100   -34.6750 h2         1 G3Y       0.114700
     27 H10        -14.6670   -25.8400   -31.6410 ho         1 G3Y       0.447000
     28 H11        -12.0640   -24.2960   -31.3480 hn         1 G3Y       0.411000
     29 H12        -13.2390   -23.7420   -30.3950 hn         1 G3Y       0.411000
     30 H14        -19.5510   -25.3540   -31.5760 ha         1 G3Y       0.120500
     31 H15        -20.2320   -27.7340   -31.8440 ha         1 G3Y       0.113000
     32 H16        -19.4990   -29.0250   -33.8480 ha         1 G3Y       0.114000
@<TRIPOS>BOND
     1     1     2 ar  
     2     1    14 ar  
     3     1    18 1   
     4     2    17 ar  
     5     2    19 1   
     6     3     4 1   
     7     3     8 1   
     8     3    13 1   
     9     3    20 1   
    10     4     5 1   
    11     4     9 1   
    12     4    21 1   
    13     5     6 1   
    14     5    10 1   
    15     5    22 1   
    16     6     7 1   
    17     6    11 1   
    18     6    23 1   
    19     7    12 1   
    20     7    24 1   
    21     7    25 1   
    22     8    11 1   
    23     8    12 1   
    24     8    26 1   
    25     9    27 1   
    26    10    28 1   
    27    10    29 1   
    28    13    14 1   
    29    14    15 ar  
    30    15    16 ar  
    31    15    30 1   
    32    16    17 ar  
    33    16    31 1   
    34    17    32 1   
@<TRIPOS>SUBSTRUCTURE
     1 G3Y         1 TEMP              0 ****  ****    0 ROOT
