@<TRIPOS>MOLECULE
G3Z
   49    52     1     0     0
SMALL
abcg2


@<TRIPOS>ATOM
      1 O1          -3.6630    -3.0020    -0.5690 o          1 G3Z      -0.587100
      2 C2          -4.1170    -2.0360     0.0200 c          1 G3Z       0.662100
      3 N4          -5.4230    -1.9190     0.3400 ns         1 G3Z      -0.533900
      4 C6          -6.3900    -2.9360    -0.0210 c3         1 G3Z       0.121000
      5 C9          -7.7830    -2.5060     0.3970 c3         1 G3Z      -0.114100
      6 N3          -3.3570    -0.9490     0.4200 ns         1 G3Z      -0.340900
      7 C5          -1.9920    -0.7930     0.2450 ca         1 G3Z       0.506900
      8 C8          -1.4720     0.4760     0.1100 ca         1 G3Z      -0.233000
      9 C11         -0.0840     0.6590    -0.0240 ca         1 G3Z       0.072000
     10 C13          0.5360     1.9380    -0.1110 cp         1 G3Z      -0.097000
     11 C15         -0.2340     3.1960    -0.1270 cp         1 G3Z       0.017000
     12 C20          0.0630     4.2250     0.7640 ca         1 G3Z      -0.160500
     13 C23         -0.6500     5.4110     0.6920 ca         1 G3Z       0.332400
     14 N26         -1.6210     5.6350    -0.1860 nb         1 G3Z      -0.664000
     15 C22         -1.9040     4.6550    -1.0380 ca         1 G3Z       0.332400
     16 C19         -1.2490     3.4350    -1.0530 ca         1 G3Z      -0.160500
     17 C16          1.9080     1.9870    -0.1770 ca         1 G3Z      -0.029000
     18 C18          2.7120     0.8410    -0.2190 ca         1 G3Z      -0.203000
     19 C14          2.1440    -0.4120    -0.1700 ca         1 G3Z       0.363000
     20 C12          0.7240    -0.5090    -0.0330 ca         1 G3Z      -0.165000
     21 C10          0.0690    -1.7430     0.1480 ca         1 G3Z       0.398900
     22 N7          -1.2210    -1.8910     0.2900 nb         1 G3Z      -0.665000
     23 N17          2.8810    -1.5760    -0.2580 nu         1 G3Z      -0.983000
     24 C21          4.2470    -1.7020    -0.0500 ca         1 G3Z       0.249000
     25 C25          4.9310    -1.0220     0.9560 ca         1 G3Z      -0.114000
     26 C28          6.2870    -1.2520     1.1110 ca         1 G3Z      -0.135000
     27 C29          6.9190    -2.1640     0.2780 ca         1 G3Z       0.307900
     28 N27          6.2710    -2.8300    -0.6700 nb         1 G3Z      -0.639000
     29 C24          4.9790    -2.5990    -0.8330 ca         1 G3Z       0.288900
     30 H1          -5.7460    -1.1300     0.8750 hn         1 G3Z       0.310500
     31 H2          -6.3650    -3.1070    -1.0990 h1         1 G3Z       0.052200
     32 H3          -6.1360    -3.8860     0.4570 h1         1 G3Z       0.052200
     33 H4          -8.0770    -1.5790    -0.0960 hc         1 G3Z       0.043033
     34 H5          -8.5060    -3.2730     0.1240 hc         1 G3Z       0.043033
     35 H6          -7.8490    -2.3560     1.4760 hc         1 G3Z       0.043033
     36 H7          -3.8570    -0.1010     0.6420 hn         1 G3Z       0.147000
     37 H8          -2.1390     1.3280     0.1200 ha         1 G3Z       0.127000
     38 H9           0.8330     4.1040     1.5150 ha         1 G3Z       0.126500
     39 H10         -0.4260     6.2160     1.3830 h4         1 G3Z       0.018600
     40 H11         -2.6920     4.8500    -1.7580 h4         1 G3Z       0.018600
     41 H12         -1.5170     2.6910    -1.7920 ha         1 G3Z       0.126500
     42 H13          2.4000     2.9500    -0.2480 ha         1 G3Z       0.117000
     43 H14          3.7800     0.9630    -0.3350 ha         1 G3Z       0.128000
     44 H15          0.6490    -2.6570     0.2200 h4         1 G3Z       0.021100
     45 H16          2.4530    -2.3400    -0.7570 hn         1 G3Z       0.499000
     46 H17          4.4160    -0.3370     1.6170 ha         1 G3Z       0.131000
     47 H18          6.8450    -0.7390     1.8820 ha         1 G3Z       0.125000
     48 H19          7.9790    -2.3630     0.3820 h4         1 G3Z       0.023100
     49 H20          4.4780    -3.1540    -1.6210 h4         1 G3Z       0.019100
@<TRIPOS>BOND
     1     1     2 2   
     2     2     3 1   
     3     2     6 1   
     4     3     4 1   
     5     3    30 1   
     6     4     5 1   
     7     4    31 1   
     8     4    32 1   
     9     5    33 1   
    10     5    34 1   
    11     5    35 1   
    12     6     7 1   
    13     6    36 1   
    14     7     8 ar  
    15     7    22 ar  
    16     8     9 ar  
    17     8    37 1   
    18     9    10 ar  
    19     9    20 ar  
    20    10    11 1   
    21    10    17 ar  
    22    11    12 ar  
    23    11    16 ar  
    24    12    13 ar  
    25    12    38 1   
    26    13    14 ar  
    27    13    39 1   
    28    14    15 ar  
    29    15    16 ar  
    30    15    40 1   
    31    16    41 1   
    32    17    18 ar  
    33    17    42 1   
    34    18    19 ar  
    35    18    43 1   
    36    19    20 ar  
    37    19    23 1   
    38    20    21 ar  
    39    21    22 ar  
    40    21    44 1   
    41    23    24 1   
    42    23    45 1   
    43    24    25 ar  
    44    24    29 ar  
    45    25    26 ar  
    46    25    46 1   
    47    26    27 ar  
    48    26    47 1   
    49    27    28 ar  
    50    27    48 1   
    51    28    29 ar  
    52    29    49 1   
@<TRIPOS>SUBSTRUCTURE
     1 G3Z         1 TEMP              0 ****  ****    0 ROOT
