@<TRIPOS>MOLECULE
G3Z
   49    52     1     0     0
SMALL
No Charge or Current Charge


@<TRIPOS>ATOM
      1 O1          -3.8000    -2.9340    -0.9620 o          1 G3Z      -0.587100
      2 C2          -4.1230    -2.0520    -0.1810 c          1 G3Z       0.662100
      3 N4          -5.3930    -1.9400     0.3240 ns         1 G3Z      -0.533900
      4 C6          -6.4880    -2.8530     0.0040 c3         1 G3Z       0.121000
      5 C9          -7.7800    -2.4610     0.7360 c3         1 G3Z      -0.114100
      6 N3          -3.2980    -1.0560     0.2750 ns         1 G3Z      -0.340900
      7 C5          -1.9370    -0.8340     0.0370 ca         1 G3Z       0.506900
      8 C8          -1.4240     0.4660     0.0050 ca         1 G3Z      -0.233000
      9 C11         -0.0410     0.6650    -0.1700 ca         1 G3Z       0.072000
     10 C13          0.5310     1.9670    -0.2250 cp         1 G3Z      -0.097000
     11 C15         -0.2800     3.2190    -0.1650 cp         1 G3Z       0.017000
     12 C20         -0.0270     4.2130     0.8050 ca         1 G3Z      -0.160500
     13 C23         -0.7930     5.3900     0.8210 ca         1 G3Z       0.332400
     14 N26         -1.7800     5.6370    -0.0710 nb         1 G3Z      -0.664000
     15 C22         -2.0240     4.6980    -1.0140 ca         1 G3Z       0.332400
     16 C19         -1.3050     3.4950    -1.0980 ca         1 G3Z      -0.160500
     17 C16          1.9330     2.0720    -0.3540 ca         1 G3Z      -0.029000
     18 C18          2.7390     0.9290    -0.4450 ca         1 G3Z      -0.203000
     19 C14          2.1730    -0.3520    -0.3990 ca         1 G3Z       0.363000
     20 C12          0.7760    -0.4850    -0.2630 ca         1 G3Z      -0.165000
     21 C10          0.1630    -1.7530    -0.1830 ca         1 G3Z       0.398900
     22 N7          -1.1660    -1.9320    -0.0300 nb         1 G3Z      -0.665000
     23 N17          3.0090    -1.4680    -0.5190 nu         1 G3Z      -0.983000
     24 C21          4.3320    -1.7270    -0.0920 ca         1 G3Z       0.249000
     25 C25          4.9100    -0.9870     0.9570 ca         1 G3Z      -0.114000
     26 C28          6.2250    -1.2890     1.3600 ca         1 G3Z      -0.135000
     27 C29          6.9270    -2.3220     0.7130 ca         1 G3Z       0.307900
     28 N27          6.3920    -3.0580    -0.2880 nb         1 G3Z      -0.639000
     29 C24          5.1210    -2.7620    -0.6720 ca         1 G3Z       0.288900
     30 H1          -5.5700    -1.1740     0.9620 hn         1 G3Z       0.310500
     31 H2          -6.6610    -2.8370    -1.0810 h1         1 G3Z       0.052200
     32 H3          -6.1980    -3.8730     0.2910 h1         1 G3Z       0.052200
     33 H4          -8.0970    -1.4510     0.4500 hc         1 G3Z       0.043033
     34 H5          -8.5870    -3.1590     0.4820 hc         1 G3Z       0.043033
     35 H6          -7.6330    -2.4880     1.8220 hc         1 G3Z       0.043033
     36 H7          -3.7340    -0.3620     0.8640 hn         1 G3Z       0.147000
     37 H8          -2.1080     1.2990     0.1240 ha         1 G3Z       0.127000
     38 H9           0.7540     4.0720     1.5470 ha         1 G3Z       0.126500
     39 H10         -0.6100     6.1610     1.5690 h4         1 G3Z       0.018600
     40 H11         -2.8180     4.9210    -1.7260 h4         1 G3Z       0.018600
     41 H12         -1.5390     2.7850    -1.8860 ha         1 G3Z       0.126500
     42 H13          2.3970     3.0560    -0.4050 ha         1 G3Z       0.117000
     43 H14          3.8100     1.0460    -0.5760 ha         1 G3Z       0.128000
     44 H15          0.7460    -2.6710    -0.2310 h4         1 G3Z       0.021100
     45 H16          2.5950    -2.2340    -1.0540 hn         1 G3Z       0.499000
     46 H17          4.3520    -0.2040     1.4630 ha         1 G3Z       0.131000
     47 H18          6.6980    -0.7350     2.1660 ha         1 G3Z       0.125000
     48 H19          7.9450    -2.5720     1.0100 h4         1 G3Z       0.023100
     49 H20          4.7170    -3.3720    -1.4790 h4         1 G3Z       0.019100
@<TRIPOS>BOND
     1     1     2 2   
     2     2     3 1   
     3     2     6 1   
     4     3     4 1   
     5     3    30 1   
     6     4     5 1   
     7     4    31 1   
     8     4    32 1   
     9     5    33 1   
    10     5    34 1   
    11     5    35 1   
    12     6     7 1   
    13     6    36 1   
    14     7     8 ar  
    15     7    22 ar  
    16     8     9 ar  
    17     8    37 1   
    18     9    10 ar  
    19     9    20 ar  
    20    10    11 1   
    21    10    17 ar  
    22    11    12 ar  
    23    11    16 ar  
    24    12    13 ar  
    25    12    38 1   
    26    13    14 ar  
    27    13    39 1   
    28    14    15 ar  
    29    15    16 ar  
    30    15    40 1   
    31    16    41 1   
    32    17    18 ar  
    33    17    42 1   
    34    18    19 ar  
    35    18    43 1   
    36    19    20 ar  
    37    19    23 1   
    38    20    21 ar  
    39    21    22 ar  
    40    21    44 1   
    41    23    24 1   
    42    23    45 1   
    43    24    25 ar  
    44    24    29 ar  
    45    25    26 ar  
    46    25    46 1   
    47    26    27 ar  
    48    26    47 1   
    49    27    28 ar  
    50    27    48 1   
    51    28    29 ar  
    52    29    49 1   
@<TRIPOS>SUBSTRUCTURE
     1 G3Z         1 TEMP              0 ****  ****    0 ROOT
