@<TRIPOS>MOLECULE
G40
  103   105     1     0     0
SMALL
No Charge or Current Charge


@<TRIPOS>ATOM
      1 C1          -3.5020     0.9770     0.2110 c3         1 G40       0.110000
      2 C2          -4.8990     1.6060    -0.1550 c          1 G40       0.573100
      3 O3          -5.1320     2.8090    -0.1150 o          1 G40      -0.618100
      4 N4          -5.8500     0.6940    -0.5570 ns         1 G40      -0.479900
      5 C5          -7.2740     0.9900    -0.8290 c3         1 G40       0.040700
      6 C6          -7.5730     1.0970    -2.3730 c3         1 G40      -0.047000
      7 C7          -7.2350    -0.2320    -3.1070 c3         1 G40      -0.085767
      8 C8          -9.0710     1.4310    -2.6130 c3         1 G40      -0.085767
      9 C9         -10.2680    -0.4510     1.1910 c3         1 G40       0.093300
     10 C11         -8.1390    -0.0790    -0.0900 c          1 G40       0.586100
     11 O12         -7.7840    -1.2430     0.0540 o          1 G40      -0.603100
     12 C13         -6.7240     2.2380    -3.0020 c3         1 G40      -0.085767
     13 C15         -3.3730     0.9560     1.7640 c3         1 G40      -0.018100
     14 C16         -4.5890     0.3470     2.4660 ca         1 G40      -0.088300
     15 C17         -4.7100    -1.0500     2.5990 ca         1 G40      -0.097000
     16 C18         -5.8440    -1.6090     3.2150 ca         1 G40      -0.112000
     17 C19         -6.8640    -0.7760     3.7010 ca         1 G40      -0.103000
     18 C20         -6.7490     0.6190     3.5760 ca         1 G40      -0.112000
     19 C21         -5.6140     1.1780     2.9630 ca         1 G40      -0.097000
     20 O22         -3.3940    -0.3870    -0.2750 oh         1 G40      -0.653000
     21 C23         -2.3610     1.8010    -0.4670 c3         1 G40      -0.102400
     22 C24         -0.9130     1.3110    -0.1970 c3         1 G40      -0.078400
     23 C25          0.1520     2.1290    -0.9640 c3         1 G40       0.159800
     24 N26          1.5450     1.7450    -0.6440 n3         1 G40      -0.453600
     25 C27          2.5780     2.6570    -1.1960 c3         1 G40       0.195100
     26 C28          4.0040     2.1940    -0.8920 ca         1 G40      -0.098300
     27 C29          4.8260     1.6970    -1.9190 ca         1 G40      -0.086000
     28 C30          6.1130     1.2120    -1.6300 ca         1 G40      -0.103500
     29 C31          6.6100     1.2070    -0.3070 ca         1 G40      -0.007000
     30 C32          5.7770     1.7140     0.7160 ca         1 G40      -0.103500
     31 C33          4.4910     2.2040     0.4260 ca         1 G40      -0.086000
     32 C35          1.9430    -2.9980    -0.7910 c3         1 G40      -0.045000
     33 C36          7.5530    -3.0880     0.5610 c3         1 G40       0.170900
     34 O37          6.1830    -2.7480     0.8330 os         1 G40      -0.446100
     35 O39          5.6810    -2.6000    -1.4080 o          1 G40      -0.554000
     36 N40          4.1230    -2.1990     0.2320 ns         1 G40      -0.488900
     37 C41          2.9670    -1.8150    -0.6110 c3         1 G40       0.051700
     38 C42          2.3420    -0.5160    -0.0170 c          1 G40       0.607100
     39 N43          1.8320     0.3760    -0.9600 ns         1 G40      -0.388300
     40 O44          2.3490    -0.2680     1.1860 o          1 G40      -0.571100
     41 C46          0.7940    -2.5800    -1.7500 c3         1 G40      -0.088100
     42 C47          2.6570    -4.2310    -1.4150 c3         1 G40      -0.088100
     43 S54         10.3710    -0.3140    -0.2780 ss         1 G40       0.197000
     44 C55          8.8570     0.2530    -0.9680 cc         1 G40      -0.244000
     45 C56          7.9670     0.6820    -0.0060 cd         1 G40      -0.055000
     46 C57          8.5110     0.5210     1.3080 cd         1 G40      -0.111000
     47 C58          9.7790     0.0010     1.3410 cc         1 G40      -0.251000
     48 H151        -2.4720     0.4000     2.0500 hc         1 G40       0.068200
     49 H152        -3.2180     1.9820     2.1210 hc         1 G40       0.068200
     50 H22         -3.1140    -0.3460    -1.2150 ho         1 G40       0.447000
     51 H231        -2.5340     1.8150    -1.5510 hc         1 G40       0.057700
     52 H232        -2.4340     2.8450    -0.1370 hc         1 G40       0.057700
     53 H4          -5.5590    -0.2780    -0.5130 hn         1 G40       0.348500
     54 H5          -7.5160     1.9550    -0.3650 h1         1 G40       0.077700
     55 H71C        -7.8420    -1.0630    -2.7280 hc         1 G40       0.038144
     56 H72C        -7.4340    -0.1420    -4.1820 hc         1 G40       0.038144
     57 H73C        -6.1790    -0.4990    -2.9870 hc         1 G40       0.038144
     58 H81C        -9.3630     2.3400    -2.0730 hc         1 G40       0.038144
     59 H82C        -9.2690     1.5980    -3.6790 hc         1 G40       0.038144
     60 H83C        -9.7240     0.6120    -2.2880 hc         1 G40       0.038144
     61 H131        -5.6510     2.0210    -2.9410 hc         1 G40       0.038144
     62 H132        -6.9710     2.3730    -4.0620 hc         1 G40       0.038144
     63 H133        -6.9090     3.1910    -2.4900 hc         1 G40       0.038144
     64 H91C       -10.6110    -1.2870     0.5670 h1         1 G40       0.041033
     65 H92C        -9.7700    -0.8440     2.0870 h1         1 G40       0.041033
     66 H93C       -11.1330     0.1540     1.4930 h1         1 G40       0.041033
     67 H10         -9.5580     1.3560     0.2860 hn         1 G40       0.317500
     68 H17         -3.9300    -1.7030     2.2160 ha         1 G40       0.116500
     69 H21         -5.5380     2.2590     2.8660 ha         1 G40       0.116500
     70 H18         -5.9330    -2.6890     3.3090 ha         1 G40       0.108500
     71 H19         -7.7430    -1.2090     4.1730 ha         1 G40       0.108000
     72 H20         -7.5390     1.2650     3.9500 ha         1 G40       0.108500
     73 H241        -0.6910     1.3810     0.8740 hc         1 G40       0.063200
     74 H242        -0.8230     0.2550    -0.4740 hc         1 G40       0.063200
     75 H251        -0.0260     2.0220    -2.0420 h1         1 G40       0.036200
     76 H252         0.0070     3.1890    -0.7160 h1         1 G40       0.036200
     77 H271         2.4560     2.7370    -2.2850 h1         1 G40       0.045700
     78 H272         2.4390     3.6660    -0.7850 h1         1 G40       0.045700
     79 H43          1.8630     0.0880    -1.9330 hn         1 G40       0.302500
     80 H29          4.4630     1.6710    -2.9440 ha         1 G40       0.118000
     81 H33          3.8620     2.5730     1.2320 ha         1 G40       0.118000
     82 H30          6.7110     0.8270    -2.4500 ha         1 G40       0.118000
     83 H32          6.1100     1.7370     1.7480 ha         1 G40       0.118000
     84 H41          3.3510    -1.5420    -1.6030 h1         1 G40       0.079700
     85 H451         0.7660    -2.5940     1.0290 hc         1 G40       0.039811
     86 H452         0.6280    -4.2570     0.4400 hc         1 G40       0.039811
     87 H453         2.0980    -3.7410     1.2790 hc         1 G40       0.039811
     88 H461         1.1910    -2.2230    -2.7080 hc         1 G40       0.039811
     89 H462         0.1300    -3.4280    -1.9580 hc         1 G40       0.039811
     90 H463         0.1760    -1.7860    -1.3160 hc         1 G40       0.039811
     91 H471         3.4240    -4.6340    -0.7440 hc         1 G40       0.039811
     92 H472         1.9420    -5.0390    -1.6170 hc         1 G40       0.039811
     93 H473         3.1390    -3.9650    -2.3640 hc         1 G40       0.039811
     94 H361         7.6180    -4.0300     0.0020 h1         1 G40       0.047367
     95 H362         8.0410    -2.3020    -0.0280 h1         1 G40       0.047367
     96 H363         8.1110    -3.2070     1.4980 h1         1 G40       0.047367
     97 H40          4.0300    -2.1440     1.2380 hn         1 G40       0.343500
     98 H55          8.7530     0.2330    -2.0440 h4         1 G40       0.152000
     99 H58         10.4080    -0.2200     2.1940 h4         1 G40       0.152000
    100 H57          7.9810     0.7760     2.2190 ha         1 G40       0.140000
    101 N10         -9.3310     0.3790     0.4320 ns         1 G40      -0.499900
    102 C45          1.3240    -3.4200     0.5720 c3         1 G40      -0.088100
    103 C38          5.3640    -2.5270    -0.2320 c          1 G40       0.639100
@<TRIPOS>BOND
     1     1     2 1   
     2     1    13 1   
     3     1    20 1   
     4     1    21 1   
     5     2     3 2   
     6     2     4 1   
     7     4     5 1   
     8     4    53 1   
     9     5     6 1   
    10     5    10 1   
    11     5    54 1   
    12     6     7 1   
    13     6     8 1   
    14     6    12 1   
    15     7    55 1   
    16     7    56 1   
    17     7    57 1   
    18     8    58 1   
    19     8    59 1   
    20     8    60 1   
    21     9    64 1   
    22     9    65 1   
    23     9    66 1   
    24     9   101 1   
    25    10    11 2   
    26    10   101 1   
    27    12    61 1   
    28    12    62 1   
    29    12    63 1   
    30    13    14 1   
    31    13    48 1   
    32    13    49 1   
    33    14    15 ar  
    34    14    19 ar  
    35    15    16 ar  
    36    15    68 1   
    37    16    17 ar  
    38    16    70 1   
    39    17    18 ar  
    40    17    71 1   
    41    18    19 ar  
    42    18    72 1   
    43    19    69 1   
    44    20    50 1   
    45    21    22 1   
    46    21    51 1   
    47    21    52 1   
    48    22    23 1   
    49    22    73 1   
    50    22    74 1   
    51    23    24 1   
    52    23    75 1   
    53    23    76 1   
    54    24    25 1   
    55    24    39 1   
    56    25    26 1   
    57    25    77 1   
    58    25    78 1   
    59    26    27 ar  
    60    26    31 ar  
    61    27    28 ar  
    62    27    80 1   
    63    28    29 ar  
    64    28    82 1   
    65    29    30 ar  
    66    29    45 1   
    67    30    31 ar  
    68    30    83 1   
    69    31    81 1   
    70    32    37 1   
    71    32    41 1   
    72    32    42 1   
    73    32   102 1   
    74    33    34 1   
    75    33    94 1   
    76    33    95 1   
    77    33    96 1   
    78    34   103 1   
    79    35   103 2   
    80    36    37 1   
    81    36    97 1   
    82    36   103 1   
    83    37    38 1   
    84    37    84 1   
    85    38    39 1   
    86    38    40 2   
    87    39    79 1   
    88    41    88 1   
    89    41    89 1   
    90    41    90 1   
    91    42    91 1   
    92    42    92 1   
    93    42    93 1   
    94    43    44 1   
    95    43    47 1   
    96    44    45 2   
    97    44    98 1   
    98    45    46 1   
    99    46    47 2   
   100    46   100 1   
   101    47    99 1   
   102    67   101 1   
   103    85   102 1   
   104    86   102 1   
   105    87   102 1   
@<TRIPOS>SUBSTRUCTURE
     1 G40         1 TEMP              0 ****  ****    0 ROOT
