@<TRIPOS>MOLECULE
G40
  103   105     1     0     0
SMALL
abcg2


@<TRIPOS>ATOM
      1 C1          -3.3390     1.0690     0.0160 c3         1 G40       0.110000
      2 C2          -4.7200     1.6680    -0.3070 c          1 G40       0.573100
      3 O3          -4.9550     2.8510    -0.1000 o          1 G40      -0.618100
      4 N4          -5.6130     0.7910    -0.7780 ns         1 G40      -0.479900
      5 C5          -7.0210     1.0620    -0.9280 c3         1 G40       0.040700
      6 C6          -7.4460     1.2140    -2.4150 c3         1 G40      -0.047000
      7 C7          -7.0530    -0.0040    -3.2520 c3         1 G40      -0.085767
      8 C8          -8.9600     1.4210    -2.4920 c3         1 G40      -0.085767
      9 C9          -9.6150    -0.6230     1.2750 c3         1 G40       0.093300
     10 C11         -7.7690    -0.0600    -0.2090 c          1 G40       0.586100
     11 O12         -7.4440    -1.2320    -0.3460 o          1 G40      -0.603100
     12 C13         -6.7530     2.4540    -2.9840 c3         1 G40      -0.085767
     13 C15         -3.2330     1.0000     1.5520 c3         1 G40      -0.018100
     14 C16         -4.3250     0.1840     2.1880 ca         1 G40      -0.088300
     15 C17         -4.1930    -1.1960     2.3280 ca         1 G40      -0.097000
     16 C18         -5.2140    -1.9550     2.8800 ca         1 G40      -0.112000
     17 C19         -6.3890    -1.3460     3.3000 ca         1 G40      -0.103000
     18 C20         -6.5290     0.0290     3.1730 ca         1 G40      -0.112000
     19 C21         -5.5040     0.7850     2.6250 ca         1 G40      -0.097000
     20 O22         -3.2300    -0.2540    -0.4630 oh         1 G40      -0.653000
     21 C23         -2.2450     1.9600    -0.5850 c3         1 G40      -0.102400
     22 C24         -0.8300     1.5070    -0.2420 c3         1 G40      -0.078400
     23 C25          0.2070     2.1700    -1.1310 c3         1 G40       0.159800
     24 N26          1.5580     1.7540    -0.7840 n3         1 G40      -0.453600
     25 C27          2.5920     2.5190    -1.4790 c3         1 G40       0.195100
     26 C28          3.9580     2.0600    -1.0540 ca         1 G40      -0.098300
     27 C29          4.7800     1.3500    -1.9200 ca         1 G40      -0.086000
     28 C30          6.0090     0.8630    -1.4990 ca         1 G40      -0.103500
     29 C31          6.4480     1.0750    -0.1940 ca         1 G40      -0.007000
     30 C32          5.6210     1.7910     0.6740 ca         1 G40      -0.103500
     31 C33          4.3960     2.2730     0.2500 ca         1 G40      -0.086000
     32 C35          1.5530    -2.9060    -0.0870 c3         1 G40      -0.045000
     33 C36          7.2830    -2.6940    -0.6230 c3         1 G40       0.170900
     34 O37          6.0740    -2.3820     0.0570 os         1 G40      -0.446100
     35 O39          4.9360    -2.5450    -1.8780 o          1 G40      -0.554000
     36 N40          3.8940    -2.0510     0.0890 ns         1 G40      -0.488900
     37 C41          2.5800    -1.8030    -0.4520 c3         1 G40       0.051700
     38 C42          2.1720    -0.4030     0.0050 c          1 G40       0.607100
     39 N43          1.7500     0.4030    -0.9900 ns         1 G40      -0.388300
     40 O44          2.2540    -0.0640     1.1710 o          1 G40      -0.571100
     41 C46          0.1920    -2.5330    -0.6760 c3         1 G40      -0.088100
     42 C47          2.0270    -4.2190    -0.7140 c3         1 G40      -0.088100
     43 S54         10.1920    -0.1960     0.3210 ss         1 G40       0.197000
     44 C55          8.8660     0.4830    -0.5200 cc         1 G40      -0.244000
     45 C56          7.7470     0.5610     0.2620 cd         1 G40      -0.055000
     46 C57          7.9910     0.0610     1.5780 cd         1 G40      -0.111000
     47 C58          9.2640    -0.3820     1.7500 cc         1 G40      -0.251000
     48 H151        -2.2600     0.5780     1.8070 hc         1 G40       0.068200
     49 H152        -3.2500     2.0200     1.9380 hc         1 G40       0.068200
     50 H22         -3.0090    -0.2320    -1.4010 ho         1 G40       0.447000
     51 H231        -2.3700     1.9640    -1.6760 hc         1 G40       0.057700
     52 H232        -2.3990     2.9900    -0.2630 hc         1 G40       0.057700
     53 H4          -5.3230    -0.1750    -0.8120 hn         1 G40       0.348500
     54 H5          -7.2330     2.0140    -0.4340 h1         1 G40       0.077700
     55 H71C        -7.5570    -0.9140    -2.9270 hc         1 G40       0.038144
     56 H72C        -7.3230     0.1680    -4.2960 hc         1 G40       0.038144
     57 H73C        -5.9770    -0.1830    -3.2210 hc         1 G40       0.038144
     58 H81C        -9.2830     2.2620    -1.8740 hc         1 G40       0.038144
     59 H82C        -9.2550     1.6400    -3.5200 hc         1 G40       0.038144
     60 H83C        -9.5170     0.5380    -2.1760 hc         1 G40       0.038144
     61 H131        -5.6670     2.3630    -2.9580 hc         1 G40       0.038144
     62 H132        -7.0430     2.5960    -4.0270 hc         1 G40       0.038144
     63 H133        -7.0320     3.3550    -2.4340 hc         1 G40       0.038144
     64 H91C       -10.1900    -1.2540     0.5960 h1         1 G40       0.041033
     65 H92C        -9.0100    -1.2660     1.9140 h1         1 G40       0.041033
     66 H93C       -10.3100    -0.0710     1.9020 h1         1 G40       0.041033
     67 H10         -9.0040     1.3010     0.6490 hn         1 G40       0.317500
     68 H17         -3.2800    -1.6810     2.0050 ha         1 G40       0.116500
     69 H21         -5.6220     1.8590     2.5330 ha         1 G40       0.116500
     70 H18         -5.0910    -3.0260     2.9840 ha         1 G40       0.108500
     71 H19         -7.1860    -1.9370     3.7320 ha         1 G40       0.108000
     72 H20         -7.4380     0.5150     3.5050 ha         1 G40       0.108500
     73 H241        -0.5930     1.7300     0.7990 hc         1 G40       0.063200
     74 H242        -0.7570     0.4240    -0.3570 hc         1 G40       0.063200
     75 H251        -0.0170     1.9670    -2.1910 h1         1 G40       0.036200
     76 H252         0.1660     3.2550    -1.0050 h1         1 G40       0.036200
     77 H271         2.4910     2.4370    -2.5720 h1         1 G40       0.045700
     78 H272         2.4400     3.5700    -1.2240 h1         1 G40       0.045700
     79 H43          1.7530     0.0590    -1.9440 hn         1 G40       0.302500
     80 H29          4.4530     1.1570    -2.9340 ha         1 G40       0.118000
     81 H33          3.7690     2.8210     0.9420 ha         1 G40       0.118000
     82 H30          6.6170     0.2880    -2.1860 ha         1 G40       0.118000
     83 H32          5.9420     1.9810     1.6910 ha         1 G40       0.118000
     84 H41          2.6790    -1.8100    -1.5400 h1         1 G40       0.079700
     85 H451         1.0440    -2.2140     1.9300 hc         1 G40       0.039811
     86 H452         0.7110    -3.9130     1.6220 hc         1 G40       0.039811
     87 H453         2.3670    -3.3820     1.8830 hc         1 G40       0.039811
     88 H461         0.2560    -2.3200    -1.7460 hc         1 G40       0.039811
     89 H462        -0.5120    -3.3570    -0.5470 hc         1 G40       0.039811
     90 H463        -0.2430    -1.6610    -0.1860 hc         1 G40       0.039811
     91 H471         2.9840    -4.5390    -0.3000 hc         1 G40       0.039811
     92 H472         1.3010    -5.0100    -0.5150 hc         1 G40       0.039811
     93 H473         2.1370    -4.1340    -1.7960 hc         1 G40       0.039811
     94 H361         7.2710    -3.7110    -1.0160 h1         1 G40       0.047367
     95 H362         7.4830    -1.9970    -1.4350 h1         1 G40       0.047367
     96 H363         8.0730    -2.6040     0.1170 h1         1 G40       0.047367
     97 H40          4.0550    -1.8060     1.0540 hn         1 G40       0.343500
     98 H55          8.9810     0.8000    -1.5460 h4         1 G40       0.152000
     99 H58          9.7020    -0.8160     2.6360 h4         1 G40       0.152000
    100 H57          7.2390     0.0130     2.3520 ha         1 G40       0.140000
    101 N10         -8.7930     0.3220     0.5590 ns         1 G40      -0.499900
    102 C45          1.4160    -3.1040     1.4230 c3         1 G40      -0.088100
    103 C38          4.9640    -2.3350    -0.6820 c          1 G40       0.639100
@<TRIPOS>BOND
     1     1     2 1   
     2     1    13 1   
     3     1    20 1   
     4     1    21 1   
     5     2     3 2   
     6     2     4 1   
     7     4     5 1   
     8     4    53 1   
     9     5     6 1   
    10     5    10 1   
    11     5    54 1   
    12     6     7 1   
    13     6     8 1   
    14     6    12 1   
    15     7    55 1   
    16     7    56 1   
    17     7    57 1   
    18     8    58 1   
    19     8    59 1   
    20     8    60 1   
    21     9    64 1   
    22     9    65 1   
    23     9    66 1   
    24     9   101 1   
    25    10    11 2   
    26    10   101 1   
    27    12    61 1   
    28    12    62 1   
    29    12    63 1   
    30    13    14 1   
    31    13    48 1   
    32    13    49 1   
    33    14    15 ar  
    34    14    19 ar  
    35    15    16 ar  
    36    15    68 1   
    37    16    17 ar  
    38    16    70 1   
    39    17    18 ar  
    40    17    71 1   
    41    18    19 ar  
    42    18    72 1   
    43    19    69 1   
    44    20    50 1   
    45    21    22 1   
    46    21    51 1   
    47    21    52 1   
    48    22    23 1   
    49    22    73 1   
    50    22    74 1   
    51    23    24 1   
    52    23    75 1   
    53    23    76 1   
    54    24    25 1   
    55    24    39 1   
    56    25    26 1   
    57    25    77 1   
    58    25    78 1   
    59    26    27 ar  
    60    26    31 ar  
    61    27    28 ar  
    62    27    80 1   
    63    28    29 ar  
    64    28    82 1   
    65    29    30 ar  
    66    29    45 1   
    67    30    31 ar  
    68    30    83 1   
    69    31    81 1   
    70    32    37 1   
    71    32    41 1   
    72    32    42 1   
    73    32   102 1   
    74    33    34 1   
    75    33    94 1   
    76    33    95 1   
    77    33    96 1   
    78    34   103 1   
    79    35   103 2   
    80    36    37 1   
    81    36    97 1   
    82    36   103 1   
    83    37    38 1   
    84    37    84 1   
    85    38    39 1   
    86    38    40 2   
    87    39    79 1   
    88    41    88 1   
    89    41    89 1   
    90    41    90 1   
    91    42    91 1   
    92    42    92 1   
    93    42    93 1   
    94    43    44 1   
    95    43    47 1   
    96    44    45 2   
    97    44    98 1   
    98    45    46 1   
    99    46    47 2   
   100    46   100 1   
   101    47    99 1   
   102    67   101 1   
   103    85   102 1   
   104    86   102 1   
   105    87   102 1   
@<TRIPOS>SUBSTRUCTURE
     1 G40         1 TEMP              0 ****  ****    0 ROOT
