@<TRIPOS>MOLECULE
G41
   62    66     1     0     0
SMALL
bcc


@<TRIPOS>ATOM
      1 C1          11.4150    10.8590   -63.8770 c3         1 G41       0.168000
      2 C2          10.6330    11.9160   -63.1270 ca         1 G41      -0.127300
      3 C3           9.2800    12.1220   -63.3690 ca         1 G41      -0.086500
      4 C7          11.2570    12.7470   -62.2050 ca         1 G41      -0.086500
      5 C8           7.3860    15.6120   -61.3210 ca         1 G41       0.916900
      6 C9           6.0920    17.3420   -60.6260 ca         1 G41       0.507200
      7 C10          5.1020    17.0000   -61.5790 ca         1 G41      -0.329600
      8 C11          3.9100    17.7200   -61.7530 ca         1 G41      -0.053000
      9 C12          2.9980    17.3360   -62.7100 cp         1 G41      -0.068000
     10 C13          3.2900    16.1970   -63.4990 ca         1 G41      -0.078000
     11 C14          4.4420    15.4760   -63.3380 ca         1 G41      -0.193300
     12 C15          5.3900    15.8710   -62.3710 ca         1 G41       0.478600
     13 C16          1.7530    18.0930   -62.9230 cp         1 G41       0.010000
     14 C19          0.0440    18.9920   -64.3470 ca         1 G41       0.401200
     15 C20          1.2100    18.2580   -64.1970 ca         1 G41      -0.241800
     16 C22          9.6840     7.6150   -62.9780 c6         1 G41       0.096500
     17 C24          7.2900     6.9210   -62.6480 c6         1 G41      -0.073400
     18 O           11.2690     8.9920   -61.7870 o          1 G41      -0.571100
     19 N5          10.0880     6.5020   -62.1480 n7         1 G41      -0.786200
     20 C26          9.2070     5.3560   -62.3080 c6         1 G41       0.162800
     21 C25          7.7970     5.7140   -61.8670 c6         1 G41      -0.076400
     22 C23          8.2810     8.0760   -62.5610 c6         1 G41      -0.071400
     23 N4          10.7280     9.5820   -63.8950 ns         1 G41      -0.579900
     24 C           11.7000    11.2970   -65.3090 c3         1 G41      -0.102100
     25 C6          10.5610    13.7550   -61.5610 ca         1 G41      -0.166500
     26 C5           9.2040    13.9660   -61.8200 ca         1 G41       0.176600
     27 C4           8.5630    13.1230   -62.7320 ca         1 G41      -0.166500
     28 N            8.5850    15.0050   -61.1280 nu         1 G41      -0.728300
     29 N2           6.5400    15.1810   -62.2220 nb         1 G41      -0.768000
     30 N1           7.1980    16.6800   -60.4910 nb         1 G41      -0.753000
     31 N3          -0.6060    19.5590   -63.3370 nb         1 G41      -0.662000
     32 C18         -0.0930    19.3990   -62.1230 ca         1 G41       0.401200
     33 C17          1.0660    18.6860   -61.8650 ca         1 G41      -0.241800
     34 H1          12.3710    10.7160   -63.3680 h1         1 G41       0.076700
     35 H2           8.7540    11.4860   -64.0730 ha         1 G41       0.129000
     36 H3          12.3100    12.6110   -61.9830 ha         1 G41       0.129000
     37 H4           5.9380    18.1950   -59.9700 h4         1 G41       0.026100
     38 H5           3.7380    18.5950   -61.1360 ha         1 G41       0.137000
     39 H6           2.5720    15.8710   -64.2420 ha         1 G41       0.137000
     40 H7           4.6400    14.6030   -63.9460 ha         1 G41       0.153000
     41 H8          -0.3800    19.1310   -65.3350 h4         1 G41       0.020100
     42 H9           1.6910    17.8450   -65.0730 ha         1 G41       0.141500
     43 H10          9.6370     7.3400   -64.0470 h1         1 G41       0.017700
     44 H11          6.3130     7.2380   -62.2800 hc         1 G41       0.038200
     45 H12          7.1540     6.6420   -63.6980 hc         1 G41       0.038200
     46 H13         11.0360     6.2290   -62.3760 hn         1 G41       0.364800
     47 H15          9.5970     4.5350   -61.7040 h1         1 G41       0.028700
     48 H16          9.1730     4.9970   -63.3500 h1         1 G41       0.028700
     49 H17          7.8010     5.9400   -60.7970 hc         1 G41       0.049700
     50 H18          7.1360     4.8570   -62.0120 hc         1 G41       0.049700
     51 H19          8.3260     8.4520   -61.5340 hc         1 G41       0.055200
     52 H20          7.9600     8.9050   -63.1960 hc         1 G41       0.055200
     53 H21         10.1620     9.3620   -64.7000 hn         1 G41       0.307500
     54 H22         12.2310    12.2470   -65.3120 hc         1 G41       0.043367
     55 H23         12.3140    10.5600   -65.8270 hc         1 G41       0.043367
     56 H24         10.7730    11.4300   -65.8710 hc         1 G41       0.043367
     57 H25         11.0780    14.3880   -60.8490 ha         1 G41       0.148500
     58 H26          7.5160    13.2500   -62.9490 ha         1 G41       0.148500
     59 H27          9.1520    15.4580   -60.4270 hn         1 G41       0.457800
     60 H28         -0.6340    19.8580   -61.3030 h4         1 G41       0.020100
     61 H29          1.4100    18.5820   -60.8440 ha         1 G41       0.141500
     62 C21         10.6490     8.7810   -62.8170 c          1 G41       0.662100
@<TRIPOS>BOND
     1     1     2 1   
     2     1    23 1   
     3     1    24 1   
     4     1    34 1   
     5     2     3 ar  
     6     2     4 ar  
     7     3    27 ar  
     8     3    35 1   
     9     4    25 ar  
    10     4    36 1   
    11     5    28 1   
    12     5    29 ar  
    13     5    30 ar  
    14     6     7 ar  
    15     6    30 ar  
    16     6    37 1   
    17     7     8 ar  
    18     7    12 ar  
    19     8     9 ar  
    20     8    38 1   
    21     9    10 ar  
    22     9    13 1   
    23    10    11 ar  
    24    10    39 1   
    25    11    12 ar  
    26    11    40 1   
    27    12    29 ar  
    28    13    15 ar  
    29    13    33 ar  
    30    14    15 ar  
    31    14    31 ar  
    32    14    41 1   
    33    15    42 1   
    34    16    19 1   
    35    16    22 1   
    36    16    43 1   
    37    16    62 1   
    38    17    21 1   
    39    17    22 1   
    40    17    44 1   
    41    17    45 1   
    42    18    62 2   
    43    19    20 1   
    44    19    46 1   
    45    20    21 1   
    46    20    47 1   
    47    20    48 1   
    48    21    49 1   
    49    21    50 1   
    50    22    51 1   
    51    22    52 1   
    52    23    53 1   
    53    23    62 1   
    54    24    54 1   
    55    24    55 1   
    56    24    56 1   
    57    25    26 ar  
    58    25    57 1   
    59    26    27 ar  
    60    26    28 1   
    61    27    58 1   
    62    28    59 1   
    63    31    32 ar  
    64    32    33 ar  
    65    32    60 1   
    66    33    61 1   
@<TRIPOS>SUBSTRUCTURE
     1 G41         1 TEMP              0 ****  ****    0 ROOT
