@<TRIPOS>MOLECULE
G41
   62    66     1     0     0
SMALL
No Charge or Current Charge


@<TRIPOS>ATOM
      1 C1          10.8250    10.7980   -63.8890 c3         1 G41       0.168000
      2 C2          10.0490    11.8630   -63.1180 ca         1 G41      -0.127300
      3 C3           8.6760    12.0760   -63.3580 ca         1 G41      -0.068500
      4 C7          10.6980    12.6350   -62.1360 ca         1 G41      -0.068500
      5 C8           6.8420    15.6170   -61.1300 ca         1 G41       0.390900
      6 C9           5.3800    17.1280   -60.2310 ca         1 G41       0.178900
      7 C10          4.7100    17.2050   -61.4660 ca         1 G41      -0.199000
      8 C11          3.5890    18.0380   -61.6380 ca         1 G41      -0.035000
      9 C12          2.9240    18.1130   -62.8870 cp         1 G41      -0.068000
     10 C13          3.4260    17.3210   -63.9500 ca         1 G41      -0.060000
     11 C14          4.5460    16.4880   -63.7740 ca         1 G41      -0.110000
     12 C15          5.1990    16.4210   -62.5320 ca         1 G41       0.085000
     13 C16          1.7300    18.9980   -63.0770 cp         1 G41       0.010000
     14 C19          0.3260    20.4530   -64.4500 ca         1 G41       0.335900
     15 C20          1.4550    19.6290   -64.3140 ca         1 G41      -0.158500
     16 C22         10.3090     6.9560   -63.2530 c6         1 G41       0.096500
     17 C24          8.1940     5.7870   -62.3860 c6         1 G41      -0.073400
     18 O           12.1730     8.2840   -64.1330 o          1 G41      -0.571100
     19 N5          11.1120     6.1610   -62.2590 n7         1 G41      -0.841400
     20 C26         10.5200     4.8380   -61.9510 c6         1 G41       0.162800
     21 C25          9.0800     4.9840   -61.4040 c6         1 G41      -0.076400
     22 C23          8.8510     7.1470   -62.7270 c6         1 G41      -0.071400
     23 N4          10.3280     9.4720   -63.5330 ns         1 G41      -0.512900
     24 C           10.7750    11.0250   -65.4140 c3         1 G41      -0.102100
     25 C6           9.9880    13.6130   -61.4170 ca         1 G41      -0.148500
     26 C5           8.6260    13.8410   -61.6700 ca         1 G41       0.315000
     27 C4           7.9720    13.0550   -62.6370 ca         1 G41      -0.148500
     28 N            7.9600    14.8170   -60.9190 nu         1 G41      -0.921900
     29 N2           6.2750    15.6270   -62.3520 nb         1 G41      -0.242000
     30 N1           6.4530    16.3320   -60.0610 nb         1 G41      -0.227000
     31 N3          -0.5430    20.6850   -63.4400 nb         1 G41      -0.662000
     32 C18         -0.2960    20.0880   -62.2520 ca         1 G41       0.335900
     33 C17          0.8110    19.2520   -62.0320 ca         1 G41      -0.158500
     34 H1          11.8800    10.8530   -63.5820 h1         1 G41       0.076700
     35 H2           8.1480    11.4770   -64.0980 ha         1 G41       0.111000
     36 H3          11.7550    12.4800   -61.9260 ha         1 G41       0.111000
     37 H4           5.0570    17.7080   -59.3680 h4         1 G41       0.026100
     38 H5           3.2420    18.6420   -60.8030 ha         1 G41       0.119000
     39 H6           2.9360    17.3380   -64.9210 ha         1 G41       0.119000
     40 H7           4.9060    15.8900   -64.6070 ha         1 G41       0.135000
     41 H8           0.1110    20.9460   -65.3980 h4         1 G41       0.020100
     42 H9           2.1170    19.5000   -65.1650 ha         1 G41       0.123500
     43 H10         10.2430     6.3650   -64.1780 h1         1 G41       0.017700
     44 H11          7.1980     5.9470   -61.9500 hc         1 G41       0.038200
     45 H12          8.0440     5.2070   -63.3080 hc         1 G41       0.038200
     46 H13         12.0580     6.0210   -62.6410 hn         1 G41       0.420000
     47 H15         11.1460     4.3200   -61.2100 h1         1 G41       0.028700
     48 H16         10.5060     4.2240   -62.8640 h1         1 G41       0.028700
     49 H17          9.1070     5.4900   -60.4290 hc         1 G41       0.049700
     50 H18          8.6460     3.9910   -61.2310 hc         1 G41       0.049700
     51 H19          8.8560     7.7830   -61.8310 hc         1 G41       0.055200
     52 H20          8.2400     7.6610   -63.4820 hc         1 G41       0.055200
     53 H21          9.4040     9.4050   -63.1290 hn         1 G41       0.307500
     54 H22         11.1280    12.0330   -65.6600 hc         1 G41       0.043367
     55 H23         11.4160    10.3050   -65.9360 hc         1 G41       0.043367
     56 H24          9.7540    10.9140   -65.7990 hc         1 G41       0.043367
     57 H25         10.5070    14.2010   -60.6650 ha         1 G41       0.130500
     58 H26          6.9110    13.1810   -62.8240 ha         1 G41       0.130500
     59 H27          8.4370    15.0530   -60.0490 hn         1 G41       0.513000
     60 H28         -1.0100    20.2840   -61.4530 h4         1 G41       0.020100
     61 H29          0.9390    18.7960   -61.0550 ha         1 G41       0.123500
     62 C21         11.0310     8.2920   -63.6860 c          1 G41       0.595100
@<TRIPOS>BOND
     1     1     2 1   
     2     1    23 1   
     3     1    24 1   
     4     1    34 1   
     5     2     3 ar  
     6     2     4 ar  
     7     3    27 ar  
     8     3    35 1   
     9     4    25 ar  
    10     4    36 1   
    11     5    28 1   
    12     5    29 ar  
    13     5    30 ar  
    14     6     7 ar  
    15     6    30 ar  
    16     6    37 1   
    17     7     8 ar  
    18     7    12 ar  
    19     8     9 ar  
    20     8    38 1   
    21     9    10 ar  
    22     9    13 1   
    23    10    11 ar  
    24    10    39 1   
    25    11    12 ar  
    26    11    40 1   
    27    12    29 ar  
    28    13    15 ar  
    29    13    33 ar  
    30    14    15 ar  
    31    14    31 ar  
    32    14    41 1   
    33    15    42 1   
    34    16    19 1   
    35    16    22 1   
    36    16    43 1   
    37    16    62 1   
    38    17    21 1   
    39    17    22 1   
    40    17    44 1   
    41    17    45 1   
    42    18    62 2   
    43    19    20 1   
    44    19    46 1   
    45    20    21 1   
    46    20    47 1   
    47    20    48 1   
    48    21    49 1   
    49    21    50 1   
    50    22    51 1   
    51    22    52 1   
    52    23    53 1   
    53    23    62 1   
    54    24    54 1   
    55    24    55 1   
    56    24    56 1   
    57    25    26 ar  
    58    25    57 1   
    59    26    27 ar  
    60    26    28 1   
    61    27    58 1   
    62    28    59 1   
    63    31    32 ar  
    64    32    33 ar  
    65    32    60 1   
    66    33    61 1   
@<TRIPOS>SUBSTRUCTURE
     1 G41         1 TEMP              0 ****  ****    0 ROOT
