@<TRIPOS>MOLECULE
G43
   81    84     1     0     0
SMALL
No Charge or Current Charge


@<TRIPOS>ATOM
      1 O8           5.8760     0.4380    -1.4600 o          1 G43      -0.547000
      2 S            5.0530    -0.0900    -0.3670 sy         1 G43       1.185600
      3 O7           5.6300    -0.8180     0.7680 o          1 G43      -0.547000
      4 C18          4.0330     1.2640     0.2280 ca         1 G43      -0.336500
      5 C23          3.6530     1.3220     1.5840 ca         1 G43       0.021000
      6 C22          2.8400     2.3720     2.0400 ca         1 G43      -0.196000
      7 C21          2.4040     3.3720     1.1460 ca         1 G43       0.203100
      8 C20          2.7910     3.3120    -0.2020 ca         1 G43      -0.196000
      9 C19          3.6030     2.2640    -0.6660 ca         1 G43       0.021000
     10 O1           1.6050     4.4260     1.5400 os         1 G43      -0.332100
     11 C26          1.0890     4.5370     2.8780 c3         1 G43       0.137900
     12 N2           3.9080    -1.1170    -1.1050 n3         1 G43      -0.777500
     13 C16          4.4500    -2.2000    -1.9670 c3         1 G43       0.231800
     14 C17          5.3010    -3.3200    -1.2910 c3         1 G43      -0.096700
     15 C25          4.5630    -4.1070    -0.1800 c3         1 G43      -0.087600
     16 C24          5.8540    -4.2920    -2.3600 c3         1 G43      -0.087600
     17 C15          2.6840    -1.4430    -0.3180 c3         1 G43       0.192800
     18 C7           1.4680    -0.5520    -0.6970 c3         1 G43       0.139300
     19 O6           1.4880    -0.3600    -2.1220 oh         1 G43      -0.643000
     20 C6           0.0840    -1.0860    -0.2050 c3         1 G43       0.091700
     21 C8          -0.3650    -2.4320    -0.8390 c3         1 G43      -0.051100
     22 C9          -1.7570    -2.8610    -0.3830 ca         1 G43      -0.116300
     23 N1          -0.9620    -0.0720    -0.3830 ns         1 G43      -0.486900
     24 C4          -1.1060     1.0470     0.3820 c          1 G43       0.648100
     25 O5          -0.4070     1.3320     1.3420 o          1 G43      -0.552000
     26 O4          -2.1700     1.7600    -0.0920 os         1 G43      -0.450100
     27 C5          -2.3790     3.0490     0.5530 c5         1 G43       0.162300
     28 C50         -3.7320     3.7150     0.0870 c5         1 G43      -0.131700
     29 C27         -3.2980     4.7030    -1.0440 c5         1 G43       0.372300
     30 O50         -1.8980     4.4610    -1.2700 os         1 G43      -0.458000
     31 C3          -1.3330     4.0570    -0.0090 c5         1 G43       0.134600
     32 O9          -4.0230     4.2940    -2.2200 os         1 G43      -0.438000
     33 C2          -4.2290     2.8720    -2.1210 c5         1 G43       0.150600
     34 C1          -4.6880     2.7090    -0.6510 c5         1 G43      -0.093400
     35 C11         -1.9590    -3.3250     0.9310 ca         1 G43      -0.053000
     36 C13         -3.2410    -3.7060     1.3640 ca         1 G43      -0.184000
     37 C14         -4.3420    -3.6250     0.4820 ca         1 G43       0.155100
     38 O60         -5.6210    -3.9870     0.8680 os         1 G43      -0.324100
     39 C60         -5.9200    -4.4680     2.1910 c3         1 G43       0.145900
     40 C12         -4.1370    -3.1610    -0.8360 ca         1 G43       0.079000
     41 C10         -2.8530    -2.7840    -1.2640 ca         1 G43      -0.067000
     42 Cl1         -5.4840    -3.0390    -1.9710 cl         1 G43      -0.191000
     43 H1           3.9790     0.5560     2.2860 ha         1 G43       0.135000
     44 H2           2.5580     2.3910     3.0880 ha         1 G43       0.132000
     45 H3           2.4550     4.0810    -0.8910 ha         1 G43       0.132000
     46 H4           3.8860     2.2280    -1.7170 ha         1 G43       0.135000
     47 H5           0.4650     5.4330     2.9720 h1         1 G43       0.051033
     48 H6           0.4720     3.6650     3.1300 h1         1 G43       0.051033
     49 H7           1.9060     4.6150     3.6070 h1         1 G43       0.051033
     50 H8           3.6190    -2.6850    -2.4970 h1         1 G43       0.062700
     51 H9           5.0710    -1.7450    -2.7520 h1         1 G43       0.062700
     52 H10          6.1750    -2.8470    -0.8300 hc         1 G43       0.064700
     53 H11          4.3140    -3.4570     0.6660 hc         1 G43       0.036367
     54 H12          3.6380    -4.5540    -0.5640 hc         1 G43       0.036367
     55 H13          5.1960    -4.9140     0.2060 hc         1 G43       0.036367
     56 H14          6.4350    -3.7500    -3.1160 hc         1 G43       0.036367
     57 H15          6.5140    -5.0400    -1.9020 hc         1 G43       0.036367
     58 H16          5.0380    -4.8210    -2.8680 hc         1 G43       0.036367
     59 H17          2.4010    -2.4850    -0.5070 h1         1 G43       0.055700
     60 H18          2.8690    -1.3690     0.7620 h1         1 G43       0.055700
     61 H19          1.6230     0.4160    -0.2040 h1         1 G43       0.103700
     62 H20          2.4430    -0.4670    -2.3460 ho         1 G43       0.435000
     63 H21          0.1760    -1.2570     0.8770 h1         1 G43       0.089700
     64 H22         -0.3390    -2.3450    -1.9320 hc         1 G43       0.051700
     65 H23          0.3510    -3.2200    -0.5810 hc         1 G43       0.051700
     66 H24         -1.6170    -0.1710    -1.1460 hn         1 G43       0.333500
     67 H25         -2.3320     2.9400     1.6460 h1         1 G43       0.083700
     68 H26         -4.2300     4.2370     0.9110 hc         1 G43       0.077700
     69 H27         -3.4850     5.7560    -0.7900 h2         1 G43       0.080700
     70 H28         -1.2310     4.9370     0.6410 h1         1 G43       0.060700
     71 H29         -0.3400     3.6170    -0.1670 h1         1 G43       0.060700
     72 H30         -4.9860     2.5460    -2.8460 h1         1 G43       0.056200
     73 H31         -3.2850     2.3500    -2.3310 h1         1 G43       0.056200
     74 H32         -4.6380     1.6760    -0.2880 hc         1 G43       0.061200
     75 H33         -5.7330     3.0230    -0.5480 hc         1 G43       0.061200
     76 H34         -1.1200    -3.3890     1.6200 ha         1 G43       0.115000
     77 H35         -3.3590    -4.0580     2.3840 ha         1 G43       0.123000
     78 H36         -5.6690    -3.7130     2.9470 h1         1 G43       0.045033
     79 H37         -6.9890    -4.6950     2.2800 h1         1 G43       0.045033
     80 H38         -5.3590    -5.3860     2.4080 h1         1 G43       0.045033
     81 H39         -2.7140    -2.4260    -2.2810 ha         1 G43       0.125000
@<TRIPOS>BOND
     1     1     2 2   
     2     2     3 2   
     3     2     4 1   
     4     2    12 1   
     5     4     5 ar  
     6     4     9 ar  
     7     5     6 ar  
     8     5    43 1   
     9     6     7 ar  
    10     6    44 1   
    11     7     8 ar  
    12     7    10 1   
    13     8     9 ar  
    14     8    45 1   
    15     9    46 1   
    16    10    11 1   
    17    11    47 1   
    18    11    48 1   
    19    11    49 1   
    20    12    13 1   
    21    12    17 1   
    22    13    14 1   
    23    13    50 1   
    24    13    51 1   
    25    14    15 1   
    26    14    16 1   
    27    14    52 1   
    28    15    53 1   
    29    15    54 1   
    30    15    55 1   
    31    16    56 1   
    32    16    57 1   
    33    16    58 1   
    34    17    18 1   
    35    17    59 1   
    36    17    60 1   
    37    18    19 1   
    38    18    20 1   
    39    18    61 1   
    40    19    62 1   
    41    20    21 1   
    42    20    23 1   
    43    20    63 1   
    44    21    22 1   
    45    21    64 1   
    46    21    65 1   
    47    22    35 ar  
    48    22    41 ar  
    49    23    24 1   
    50    23    66 1   
    51    24    25 2   
    52    24    26 1   
    53    26    27 1   
    54    27    28 1   
    55    27    31 1   
    56    27    67 1   
    57    28    29 1   
    58    28    34 1   
    59    28    68 1   
    60    29    30 1   
    61    29    32 1   
    62    29    69 1   
    63    30    31 1   
    64    31    70 1   
    65    31    71 1   
    66    32    33 1   
    67    33    34 1   
    68    33    72 1   
    69    33    73 1   
    70    34    74 1   
    71    34    75 1   
    72    35    36 ar  
    73    35    76 1   
    74    36    37 ar  
    75    36    77 1   
    76    37    38 1   
    77    37    40 ar  
    78    38    39 1   
    79    39    78 1   
    80    39    79 1   
    81    39    80 1   
    82    40    41 ar  
    83    40    42 1   
    84    41    81 1   
@<TRIPOS>SUBSTRUCTURE
     1 G43         1 TEMP              0 ****  ****    0 ROOT
