@<TRIPOS>MOLECULE
G43
   81    84     1     0     0
SMALL
bcc


@<TRIPOS>ATOM
      1 O8           6.2390    -0.1890    -0.2710 o          1 G43      -0.617800
      2 S            5.0130    -0.6960     0.3310 sy         1 G43       1.327200
      3 O7           5.1300    -1.6380     1.4390 o          1 G43      -0.617800
      4 C18          4.0220     0.6510     0.8850 ca         1 G43      -0.336500
      5 C23          3.1940     0.5030     1.9850 ca         1 G43       0.003000
      6 C22          2.3210     1.5190     2.3410 ca         1 G43      -0.214000
      7 C21          2.2840     2.6950     1.5920 ca         1 G43       0.203100
      8 C20          3.1500     2.8490     0.5000 ca         1 G43      -0.214000
      9 C19          4.0060     1.8320     0.1440 ca         1 G43       0.003000
     10 O1           1.4670     3.7200     1.8460 os         1 G43      -0.308900
     11 C26          0.5660     3.6230     2.9380 c3         1 G43       0.114700
     12 N2           4.1060    -1.3130    -0.8960 n3         1 G43      -0.777500
     13 C16          4.7710    -1.8490    -2.0820 c3         1 G43       0.231800
     14 C17          5.6540    -3.0780    -1.8660 c3         1 G43      -0.096700
     15 C25          4.9260    -4.2200    -1.1670 c3         1 G43      -0.087600
     16 C24          6.2010    -3.5270    -3.2170 c3         1 G43      -0.087600
     17 C15          2.7390    -1.7130    -0.5800 c3         1 G43       0.192800
     18 C7           1.7140    -0.6960    -1.0780 c3         1 G43       0.116100
     19 O6           1.5960    -0.6990    -2.4830 oh         1 G43      -0.580800
     20 C6           0.3630    -0.8550    -0.3730 c3         1 G43       0.091700
     21 C8          -0.3000    -2.2260    -0.6070 c3         1 G43      -0.051100
     22 C9          -1.6130    -2.3210     0.1120 ca         1 G43      -0.116300
     23 N1          -0.5100     0.2160    -0.7900 ns         1 G43      -0.553900
     24 C4          -1.3090     0.8870     0.0610 c          1 G43       0.764100
     25 O5          -1.2660     0.8310     1.2710 o          1 G43      -0.601000
     26 O4          -2.1640     1.6590    -0.6250 os         1 G43      -0.426900
     27 C5          -3.1280     2.4030     0.1100 c5         1 G43       0.139100
     28 C50         -4.2910     2.7810    -0.8150 c5         1 G43      -0.131700
     29 C27         -3.9650     4.2230    -1.2690 c5         1 G43       0.325900
     30 O50         -2.7430     4.5680    -0.6560 os         1 G43      -0.411600
     31 C3          -2.5830     3.7690     0.4970 c5         1 G43       0.111400
     32 O9          -3.8370     4.2200    -2.6500 os         1 G43      -0.391600
     33 C2          -3.6190     2.8840    -3.0980 c5         1 G43       0.127400
     34 C1          -4.4260     2.0230    -2.1350 c5         1 G43      -0.093400
     35 C11         -1.6820    -2.7680     1.4240 ca         1 G43      -0.071000
     36 C13         -2.8760    -2.7690     2.1310 ca         1 G43      -0.202000
     37 C14         -4.0450    -2.3000     1.5400 ca         1 G43       0.155100
     38 O60         -5.2430    -2.2490     2.1390 os         1 G43      -0.300900
     39 C60         -5.3460    -2.7120     3.4720 c3         1 G43       0.122700
     40 C12         -3.9740    -1.8540     0.2170 ca         1 G43      -0.012600
     41 C10         -2.7870    -1.8730    -0.4890 ca         1 G43      -0.085000
     42 CL1         -5.4150    -1.2600    -0.5380 cl         1 G43      -0.099400
     43 H1           3.2100    -0.4040     2.5740 ha         1 G43       0.153000
     44 H2           1.6730     1.3720     3.1930 ha         1 G43       0.150000
     45 H3           3.1300     3.7690    -0.0700 ha         1 G43       0.150000
     46 H4           4.6510     1.9540    -0.7160 ha         1 G43       0.153000
     47 H5          -0.0030     4.5480     2.9460 h1         1 G43       0.051033
     48 H6          -0.1200     2.7810     2.8180 h1         1 G43       0.051033
     49 H7           1.0940     3.5250     3.8890 h1         1 G43       0.051033
     50 H8           3.9710    -2.0880    -2.7850 h1         1 G43       0.062700
     51 H9           5.3550    -1.0570    -2.5540 h1         1 G43       0.062700
     52 H10          6.5030    -2.7800    -1.2420 hc         1 G43       0.064700
     53 H11          4.5870    -3.9410    -0.1690 hc         1 G43       0.036367
     54 H12          4.0570    -4.5480    -1.7420 hc         1 G43       0.036367
     55 H13          5.5870    -5.0810    -1.0560 hc         1 G43       0.036367
     56 H14          6.7190    -2.7160    -3.7320 hc         1 G43       0.036367
     57 H15          6.9080    -4.3480    -3.0980 hc         1 G43       0.036367
     58 H16          5.3960    -3.8740    -3.8690 hc         1 G43       0.036367
     59 H17          2.5530    -2.6960    -1.0190 h1         1 G43       0.055700
     60 H18          2.6210    -1.8610     0.4970 h1         1 G43       0.055700
     61 H19          2.0730     0.3030    -0.8240 h1         1 G43       0.103700
     62 H20          1.3410    -1.5790    -2.7800 ho         1 G43       0.396000
     63 H21          0.5410    -0.7310     0.6970 h1         1 G43       0.089700
     64 H22         -0.4500    -2.3890    -1.6780 hc         1 G43       0.051700
     65 H23          0.3690    -3.0150    -0.2560 hc         1 G43       0.051700
     66 H24         -0.6860     0.3100    -1.7790 hn         1 G43       0.333500
     67 H25         -3.4620     1.8330     0.9760 h1         1 G43       0.083700
     68 H26         -5.2130     2.7510    -0.2350 hc         1 G43       0.077700
     69 H27         -4.7320     4.9590    -1.0040 h2         1 G43       0.080700
     70 H28         -3.1580     4.1620     1.3450 h1         1 G43       0.060700
     71 H29         -1.5300     3.7590     0.7790 h1         1 G43       0.060700
     72 H30         -3.9580     2.8140    -4.1310 h1         1 G43       0.056200
     73 H31         -2.5550     2.6300    -3.0720 h1         1 G43       0.056200
     74 H32         -4.0780     0.9940    -2.0900 hc         1 G43       0.061200
     75 H33         -5.4740     2.0030    -2.4370 hc         1 G43       0.061200
     76 H34         -0.7840    -3.1220     1.9170 ha         1 G43       0.133000
     77 H35         -2.8820    -3.1340     3.1490 ha         1 G43       0.141000
     78 H36         -4.7200    -2.1320     4.1550 h1         1 G43       0.045033
     79 H37         -6.3870    -2.5880     3.7590 h1         1 G43       0.045033
     80 H38         -5.0790    -3.7680     3.5590 h1         1 G43       0.045033
     81 H39         -2.7780    -1.5330    -1.5160 ha         1 G43       0.143000
@<TRIPOS>BOND
     1     1     2 2   
     2     2     3 2   
     3     2     4 1   
     4     2    12 1   
     5     4     5 ar  
     6     4     9 ar  
     7     5     6 ar  
     8     5    43 1   
     9     6     7 ar  
    10     6    44 1   
    11     7     8 ar  
    12     7    10 1   
    13     8     9 ar  
    14     8    45 1   
    15     9    46 1   
    16    10    11 1   
    17    11    47 1   
    18    11    48 1   
    19    11    49 1   
    20    12    13 1   
    21    12    17 1   
    22    13    14 1   
    23    13    50 1   
    24    13    51 1   
    25    14    15 1   
    26    14    16 1   
    27    14    52 1   
    28    15    53 1   
    29    15    54 1   
    30    15    55 1   
    31    16    56 1   
    32    16    57 1   
    33    16    58 1   
    34    17    18 1   
    35    17    59 1   
    36    17    60 1   
    37    18    19 1   
    38    18    20 1   
    39    18    61 1   
    40    19    62 1   
    41    20    21 1   
    42    20    23 1   
    43    20    63 1   
    44    21    22 1   
    45    21    64 1   
    46    21    65 1   
    47    22    35 ar  
    48    22    41 ar  
    49    23    24 1   
    50    23    66 1   
    51    24    25 2   
    52    24    26 1   
    53    26    27 1   
    54    27    28 1   
    55    27    31 1   
    56    27    67 1   
    57    28    29 1   
    58    28    34 1   
    59    28    68 1   
    60    29    30 1   
    61    29    32 1   
    62    29    69 1   
    63    30    31 1   
    64    31    70 1   
    65    31    71 1   
    66    32    33 1   
    67    33    34 1   
    68    33    72 1   
    69    33    73 1   
    70    34    74 1   
    71    34    75 1   
    72    35    36 ar  
    73    35    76 1   
    74    36    37 ar  
    75    36    77 1   
    76    37    38 1   
    77    37    40 ar  
    78    38    39 1   
    79    39    78 1   
    80    39    79 1   
    81    39    80 1   
    82    40    41 ar  
    83    40    42 1   
    84    41    81 1   
@<TRIPOS>SUBSTRUCTURE
     1 G43         1 TEMP              0 ****  ****    0 ROOT
