@<TRIPOS>MOLECULE
G44
   46    48     1     0     0
SMALL
No Charge or Current Charge


@<TRIPOS>ATOM
      1 C1          -6.6830    -1.8340     2.0410 c3         1 G44      -0.046800
      2 C2          -6.4290    -0.6360     1.1390 ca         1 G44      -0.089300
      3 C3          -7.5060     0.1380     0.6680 ca         1 G44      -0.084000
      4 C4          -7.2670     1.2530    -0.1510 ca         1 G44      -0.122000
      5 C5          -5.9540     1.5980    -0.5100 ca         1 G44      -0.060000
      6 C6          -4.8640     0.8220    -0.0600 ca         1 G44      -0.168600
      7 C7          -5.1130    -0.2870     0.7800 ca         1 G44      -0.069000
      8 C8          -3.4540     1.2150    -0.4420 c          1 G44       0.590300
      9 O9          -3.1620     2.3960    -0.6020 o          1 G44      -0.512100
     10 C10         -2.4060     0.1330    -0.6260 ca         1 G44      -0.081600
     11 C11         -2.7270    -1.1730    -1.0580 ca         1 G44      -0.206000
     12 C12         -1.7060    -2.1230    -1.2270 ca         1 G44       0.385900
     13 N13         -0.4020    -1.8530    -1.0050 nb         1 G44      -0.747000
     14 C14         -0.0940    -0.6150    -0.6100 ca         1 G44       0.621900
     15 N15          1.2550    -0.4520    -0.4210 nu         1 G44      -0.789100
     16 C16          1.9580     0.7590     0.0010 c3         1 G44       0.284100
     17 C17          3.4550     0.4900     0.0790 ca         1 G44      -0.104300
     18 C18          4.0330     0.0230     1.2740 ca         1 G44      -0.094500
     19 C19          5.4140    -0.2280     1.3480 ca         1 G44      -0.091500
     20 C20          6.2510    -0.0040     0.2300 ca         1 G44      -0.185900
     21 C21          5.6570     0.4430    -0.9740 ca         1 G44      -0.091500
     22 C22          4.2750     0.6920    -1.0450 ca         1 G44      -0.094500
     23 C23          7.7150    -0.3090     0.2940 ce         1 G44       0.659800
     24 N24          8.5450     0.4170    -0.4770 nv         1 G44      -1.032200
     25 N25          8.2280    -1.1080     1.1350 n2         1 G44      -0.840100
     26 C26         -1.0380     0.4050    -0.4130 ca         1 G44      -0.201000
     27 H11A        -6.6140    -1.5480     3.0970 hc         1 G44       0.044367
     28 H12A        -7.6790    -2.2600     1.8730 hc         1 G44       0.044367
     29 H13         -5.9510    -2.6310     1.8610 hc         1 G44       0.044367
     30 H3          -8.5270    -0.1190     0.9430 ha         1 G44       0.113000
     31 H4          -8.1020     1.8530    -0.5070 ha         1 G44       0.118000
     32 H5          -5.7850     2.4660    -1.1460 ha         1 G44       0.131000
     33 H7          -4.2850    -0.8750     1.1690 ha         1 G44       0.121000
     34 H11         -3.7520    -1.4580    -1.2780 ha         1 G44       0.132000
     35 H12         -1.9410    -3.1340    -1.5600 h4         1 G44       0.018100
     36 HN15         1.8090    -1.2790    -0.6050 hn         1 G44       0.350000
     37 H161         1.7690     1.5730    -0.7130 h1         1 G44       0.048700
     38 H162         1.5920     1.0850     0.9840 h1         1 G44       0.048700
     39 H18          3.4090    -0.1470     2.1500 ha         1 G44       0.121500
     40 H19          5.8290    -0.5820     2.2900 ha         1 G44       0.125000
     41 H21          6.2610     0.5900    -1.8680 ha         1 G44       0.125000
     42 H22          3.8400     1.0370    -1.9810 ha         1 G44       0.121500
     43 H241         8.1790     1.3140    -0.7720 hn         1 G44       0.470500
     44 H242         9.5080     0.4120    -0.1660 hn         1 G44       0.470500
     45 HN25         7.4580    -1.6100     1.5970 hn         1 G44       0.389400
     46 H26         -0.7170     1.3910    -0.0930 ha         1 G44       0.133000
@<TRIPOS>BOND
     1     1     2 1   
     2     1    27 1   
     3     1    28 1   
     4     1    29 1   
     5     2     3 ar  
     6     2     7 ar  
     7     3     4 ar  
     8     3    30 1   
     9     4     5 ar  
    10     4    31 1   
    11     5     6 ar  
    12     5    32 1   
    13     6     7 ar  
    14     6     8 1   
    15     7    33 1   
    16     8     9 2   
    17     8    10 1   
    18    10    11 ar  
    19    10    26 ar  
    20    11    12 ar  
    21    11    34 1   
    22    12    13 ar  
    23    12    35 1   
    24    13    14 ar  
    25    14    15 1   
    26    14    26 ar  
    27    15    16 1   
    28    15    36 1   
    29    16    17 1   
    30    16    37 1   
    31    16    38 1   
    32    17    18 ar  
    33    17    22 ar  
    34    18    19 ar  
    35    18    39 1   
    36    19    20 ar  
    37    19    40 1   
    38    20    21 ar  
    39    20    23 1   
    40    21    22 ar  
    41    21    41 1   
    42    22    42 1   
    43    23    24 1   
    44    23    25 2   
    45    24    43 1   
    46    24    44 1   
    47    25    45 1   
    48    26    46 1   
@<TRIPOS>SUBSTRUCTURE
     1 G44         1 TEMP              0 ****  ****    0 ROOT
