@<TRIPOS>MOLECULE
G44
   46    48     1     0     0
SMALL
bcc


@<TRIPOS>ATOM
      1 C1          -6.1390    -1.6720     2.3500 c3         1 G44      -0.046800
      2 C2          -6.0270    -0.5480     1.3620 ca         1 G44      -0.089300
      3 C3          -7.1160     0.2740     1.0820 ca         1 G44      -0.102000
      4 C4          -7.0010     1.3400     0.1980 ca         1 G44      -0.140000
      5 C5          -5.7920     1.6070    -0.4200 ca         1 G44      -0.078000
      6 C6          -4.6950     0.7810    -0.1720 ca         1 G44      -0.168600
      7 C7          -4.8230    -0.2870     0.7150 ca         1 G44      -0.087000
      8 C8          -3.3960     1.0980    -0.8140 c          1 G44       0.590300
      9 O9          -3.1340     2.2220    -1.1880 o          1 G44      -0.512100
     10 C10         -2.3950     0.0030    -1.0010 ca         1 G44      -0.081600
     11 C11         -2.7740    -1.2560    -1.4670 ca         1 G44      -0.289300
     12 C12         -1.7670    -2.1810    -1.6810 ca         1 G44       0.451200
     13 N13         -0.4840    -1.9550    -1.4440 nb         1 G44      -0.747000
     14 C14         -0.1210    -0.7520    -0.9870 ca         1 G44       0.687200
     15 N15          1.1980    -0.5720    -0.7520 nu         1 G44      -0.893900
     16 C16          1.7670     0.6420    -0.2150 c3         1 G44       0.284100
     17 C17          3.2410     0.4540     0.0130 ca         1 G44      -0.104300
     18 C18          3.7080    -0.0590     1.2200 ca         1 G44      -0.112500
     19 C19          5.0620    -0.2730     1.4180 ca         1 G44      -0.109500
     20 C20          5.9800     0.0250     0.4140 ca         1 G44      -0.185900
     21 C21          5.5140     0.5450    -0.7920 ca         1 G44      -0.109500
     22 C22          4.1570     0.7480    -0.9900 ca         1 G44      -0.112500
     23 C23          7.4320    -0.2320     0.6360 ce         1 G44       0.659800
     24 N24          8.2710     0.6520     0.0290 nv         1 G44      -0.921800
     25 N25          7.8960    -1.2200     1.3020 n2         1 G44      -0.840100
     26 C26         -1.0600     0.2730    -0.7700 ca         1 G44      -0.284300
     27 H11A        -5.9540    -1.3150     3.3650 hc         1 G44       0.044367
     28 H12A        -7.1340    -2.1160     2.3410 hc         1 G44       0.044367
     29 H13         -5.4140    -2.4580     2.1440 hc         1 G44       0.044367
     30 H3          -8.0690     0.0790     1.5600 ha         1 G44       0.131000
     31 H4          -7.8620     1.9640    -0.0070 ha         1 G44       0.136000
     32 H5          -5.7040     2.4380    -1.1070 ha         1 G44       0.149000
     33 H7          -3.9700    -0.9210     0.9250 ha         1 G44       0.139000
     34 H11         -3.8040    -1.5060    -1.6780 ha         1 G44       0.150000
     35 H12         -2.0140    -3.1660    -2.0620 h4         1 G44       0.018100
     36 HN15         1.7980    -1.3660    -0.9050 hn         1 G44       0.454800
     37 H161         1.6040     1.4790    -0.9030 h1         1 G44       0.048700
     38 H162         1.2810     0.9080     0.7300 h1         1 G44       0.048700
     39 H18          3.0090    -0.2820     2.0160 ha         1 G44       0.139500
     40 H19          5.4050    -0.6550     2.3720 ha         1 G44       0.143000
     41 H21          6.2070     0.7770    -1.5900 ha         1 G44       0.143000
     42 H22          3.8080     1.1420    -1.9370 ha         1 G44       0.139500
     43 H241         7.9510     1.5960    -0.1100 hn         1 G44       0.415300
     44 H242         9.2480     0.5750     0.2650 hn         1 G44       0.415300
     45 HN25         7.1470    -1.8360     1.5960 hn         1 G44       0.389400
     46 H26         -0.7510     1.2470    -0.4160 ha         1 G44       0.151000
@<TRIPOS>BOND
     1     1     2 1   
     2     1    27 1   
     3     1    28 1   
     4     1    29 1   
     5     2     3 ar  
     6     2     7 ar  
     7     3     4 ar  
     8     3    30 1   
     9     4     5 ar  
    10     4    31 1   
    11     5     6 ar  
    12     5    32 1   
    13     6     7 ar  
    14     6     8 1   
    15     7    33 1   
    16     8     9 2   
    17     8    10 1   
    18    10    11 ar  
    19    10    26 ar  
    20    11    12 ar  
    21    11    34 1   
    22    12    13 ar  
    23    12    35 1   
    24    13    14 ar  
    25    14    15 1   
    26    14    26 ar  
    27    15    16 1   
    28    15    36 1   
    29    16    17 1   
    30    16    37 1   
    31    16    38 1   
    32    17    18 ar  
    33    17    22 ar  
    34    18    19 ar  
    35    18    39 1   
    36    19    20 ar  
    37    19    40 1   
    38    20    21 ar  
    39    20    23 1   
    40    21    22 ar  
    41    21    41 1   
    42    22    42 1   
    43    23    24 1   
    44    23    25 2   
    45    24    43 1   
    46    24    44 1   
    47    25    45 1   
    48    26    46 1   
@<TRIPOS>SUBSTRUCTURE
     1 G44         1 TEMP              0 ****  ****    0 ROOT
