@<TRIPOS>MOLECULE
G45
   59    62     1     0     0
SMALL
No Charge or Current Charge


@<TRIPOS>ATOM
      1 N9           2.5180    -0.6420    -3.6510 n1         1 G45      -0.501000
      2 C8           2.7060     0.0330    -2.7200 cg         1 G45       0.310700
      3 N7           2.4950     2.9060    -2.9130 nv         1 G45      -0.963000
      4 C5           3.0210     1.3270     0.8430 cc         1 G45      -0.242300
      5 C6           2.8660     2.6730     0.5410 cc         1 G45       0.473300
      6 C2           2.7630     2.2380    -1.7430 c2         1 G45       0.409100
      7 C4           3.2130     0.2590    -0.2140 c6         1 G45       0.199800
      8 O35         -6.3430    -0.1180    -1.1510 o          1 G45      -0.533500
      9 O34         -4.8620     1.9570    -0.8540 o          1 G45      -0.533500
     10 N31         -5.9170     0.8590     1.1630 n3         1 G45      -0.702500
     11 C33         -7.2230     1.5460     1.2120 c3         1 G45       0.166600
     12 C32         -5.8590    -0.3490     2.0110 c3         1 G45       0.166600
     13 C28         -3.8730    -0.3790    -0.3220 cc         1 G45      -0.480500
     14 C27         -3.7900    -1.7300    -0.5680 cd         1 G45       0.007000
     15 C26         -2.4770    -2.2470    -0.3930 cd         1 G45      -0.152000
     16 S29         -2.3250     0.3080     0.1270 ss         1 G45       0.343000
     17 C25         -1.5760    -1.2830    -0.0080 cc         1 G45      -0.132000
     18 C21         -0.1600    -1.5890     0.2070 ca         1 G45      -0.032000
     19 C20          0.2420    -2.8350     0.7250 ca         1 G45      -0.055000
     20 C19          1.6020    -3.1050     0.9500 ca         1 G45      -0.022000
     21 C23          2.0000    -4.3710     1.5010 cg         1 G45       0.321000
     22 N24          2.3330    -5.3950     1.9520 n1         1 G45      -0.448000
     23 C18          2.5730    -2.1320     0.6490 ca         1 G45      -0.066000
     24 C22          0.8210    -0.6220    -0.0850 ca         1 G45      -0.063000
     25 C17          2.1980    -0.8790     0.1070 ca         1 G45      -0.059300
     26 C14          4.7480    -0.1720    -0.1830 c3         1 G45      -0.043700
     27 C16          5.1720    -1.2620    -1.2080 c3         1 G45      -0.089100
     28 C15          5.7430     1.0180    -0.2940 c3         1 G45      -0.089100
     29 C3           2.8930     0.9000    -1.5950 ce         1 G45      -0.265900
     30 C10          2.9750     1.2630     2.2090 cd         1 G45      -0.090300
     31 C13          3.0670     0.0900     3.1520 c3         1 G45      -0.035800
     32 N11          2.8150     2.6030     2.6230 na         1 G45      -0.004200
     33 N12          2.7520     3.5000     1.5490 nd         1 G45      -0.504800
     34 O1           2.8370     3.1360    -0.7330 os         1 G45      -0.331400
     35 H1           2.0380     2.3660    -3.6420 hn         1 G45       0.509000
     36 H2           2.1520     3.8570    -2.8050 hn         1 G45       0.509000
     37 H3          -7.1880     2.4990     0.6680 h1         1 G45       0.054200
     38 H4          -8.0150     0.9260     0.7690 h1         1 G45       0.054200
     39 H5          -7.5060     1.7670     2.2500 h1         1 G45       0.054200
     40 H6          -6.2170    -0.1270     3.0250 h1         1 G45       0.054200
     41 H7          -6.4840    -1.1520     1.5980 h1         1 G45       0.054200
     42 H8          -4.8320    -0.7240     2.1030 h1         1 G45       0.054200
     43 H9          -4.6370    -2.3430    -0.8670 ha         1 G45       0.150000
     44 H10         -2.2270    -3.2890    -0.5600 ha         1 G45       0.143000
     45 H11         -0.5020    -3.5870     0.9770 ha         1 G45       0.130000
     46 H12          3.6130    -2.3650     0.8590 ha         1 G45       0.131000
     47 H13          0.5110     0.3450    -0.4720 ha         1 G45       0.130000
     48 H14          4.9430    -0.5990     0.8060 hc         1 G45       0.038700
     49 H15          5.3110    -0.8330    -2.2080 hc         1 G45       0.038367
     50 H16          6.1280    -1.7110    -0.9110 hc         1 G45       0.038367
     51 H17          4.4360    -2.0690    -1.2880 hc         1 G45       0.038367
     52 H18          5.6130     1.7300     0.5280 hc         1 G45       0.038367
     53 H19          6.7780     0.6590    -0.2500 hc         1 G45       0.038367
     54 H20          5.6140     1.5550    -1.2410 hc         1 G45       0.038367
     55 H21          3.9400    -0.5330     2.9310 hc         1 G45       0.058033
     56 H22          3.1560     0.4200     4.1940 hc         1 G45       0.058033
     57 H23          2.1740    -0.5400     3.0800 hc         1 G45       0.058033
     58 H24          2.7500     2.9260     3.5880 hn         1 G45       0.381000
     59 S30         -5.3220     0.6360    -0.4150 sy         1 G45       1.189600
@<TRIPOS>BOND
     1     1     2 3   
     2     2    29 1   
     3     3     6 1   
     4     3    35 1   
     5     3    36 1   
     6     4     5 1   
     7     4     7 1   
     8     4    30 2   
     9     5    33 2   
    10     5    34 1   
    11     6    29 2   
    12     6    34 1   
    13     7    25 1   
    14     7    26 1   
    15     7    29 1   
    16     8    59 2   
    17     9    59 2   
    18    10    11 1   
    19    10    12 1   
    20    10    59 1   
    21    11    37 1   
    22    11    38 1   
    23    11    39 1   
    24    12    40 1   
    25    12    41 1   
    26    12    42 1   
    27    13    14 2   
    28    13    16 1   
    29    13    59 1   
    30    14    15 1   
    31    14    43 1   
    32    15    17 2   
    33    15    44 1   
    34    16    17 1   
    35    17    18 1   
    36    18    19 ar  
    37    18    24 ar  
    38    19    20 ar  
    39    19    45 1   
    40    20    21 1   
    41    20    23 ar  
    42    21    22 3   
    43    23    25 ar  
    44    23    46 1   
    45    24    25 ar  
    46    24    47 1   
    47    26    27 1   
    48    26    28 1   
    49    26    48 1   
    50    27    49 1   
    51    27    50 1   
    52    27    51 1   
    53    28    52 1   
    54    28    53 1   
    55    28    54 1   
    56    30    31 1   
    57    30    32 1   
    58    31    55 1   
    59    31    56 1   
    60    31    57 1   
    61    32    33 1   
    62    32    58 1   
@<TRIPOS>SUBSTRUCTURE
     1 G45         1 TEMP              0 ****  ****    0 ROOT
