@<TRIPOS>MOLECULE
G45
   59    62     1     0     0
SMALL
bcc


@<TRIPOS>ATOM
      1 N9           2.3510    -0.4650    -3.6110 n1         1 G45      -0.411800
      2 C8           2.5790     0.1500    -2.6560 cg         1 G45       0.221500
      3 N7           2.7210     2.9330    -2.8120 nv         1 G45      -0.852600
      4 C5           2.8580     1.2140     0.8880 cc         1 G45      -0.307600
      5 C6           2.7580     2.5740     0.6190 cc         1 G45       0.538600
      6 C2           2.7830     2.2780    -1.6490 c2         1 G45       0.409100
      7 C4           3.0900     0.1890    -0.1800 c6         1 G45       0.199800
      8 O35         -6.1880     0.7000    -1.3290 o          1 G45      -0.604300
      9 O34         -4.5890     2.4160    -0.4040 o          1 G45      -0.604300
     10 N31         -5.8510     0.9040     1.1400 n3         1 G45      -0.702500
     11 C33         -6.5800    -0.3400     1.3600 c3         1 G45       0.166600
     12 C32         -5.0090     1.2920     2.2680 c3         1 G45       0.166600
     13 C28         -3.8680    -0.0540    -0.4680 cc         1 G45      -0.335600
     14 C27         -3.9560    -1.3730    -0.8100 cd         1 G45      -0.011000
     15 C26         -2.7130    -2.0310    -0.6890 cd         1 G45      -0.170000
     16 S29         -2.2840     0.3960     0.0090 ss         1 G45       0.053200
     17 C25         -1.7090    -1.2040    -0.2560 cc         1 G45       0.012900
     18 C21         -0.3080    -1.5450    -0.0100 ca         1 G45      -0.032000
     19 C20          0.0180    -2.8170     0.4550 ca         1 G45      -0.073000
     20 C19          1.3490    -3.1220     0.6990 ca         1 G45      -0.022000
     21 C23          1.6910    -4.4190     1.1900 cg         1 G45       0.231800
     22 N24          1.9680    -5.4640     1.5850 n1         1 G45      -0.358800
     23 C18          2.3620    -2.1830     0.4920 ca         1 G45      -0.084000
     24 C22          0.7100    -0.6210    -0.2250 ca         1 G45      -0.081000
     25 C17          2.0490    -0.9190     0.0180 ca         1 G45      -0.059300
     26 C14          4.5560    -0.3330    -0.1170 c3         1 G45      -0.043700
     27 C16          4.9170    -1.2870    -1.2550 c3         1 G45      -0.089100
     28 C15          5.5680     0.8070    -0.0860 c3         1 G45      -0.089100
     29 C3           2.8180     0.9120    -1.4990 ce         1 G45      -0.265900
     30 C10          2.7250     1.1520     2.2630 cd         1 G45      -0.039600
     31 C13          2.7240     0.0050     3.2060 c3         1 G45      -0.035800
     32 N11          2.5690     2.4250     2.6670 na         1 G45      -0.004600
     33 N12          2.5830     3.3210     1.6760 nd         1 G45      -0.504800
     34 O1           2.8330     3.1300    -0.6140 os         1 G45      -0.331400
     35 H1           2.6500     2.4250    -3.6780 hn         1 G45       0.453800
     36 H2           2.4090     3.8900    -2.8290 hn         1 G45       0.453800
     37 H3          -7.3090    -0.5090     0.5720 h1         1 G45       0.054200
     38 H4          -5.9160    -1.2080     1.4350 h1         1 G45       0.054200
     39 H5          -7.1200    -0.2440     2.2990 h1         1 G45       0.054200
     40 H6          -5.6440     1.3510     3.1490 h1         1 G45       0.054200
     41 H7          -4.2160     0.5640     2.4670 h1         1 G45       0.054200
     42 H8          -4.5680     2.2710     2.1090 h1         1 G45       0.054200
     43 H9          -4.8640    -1.8510    -1.1480 ha         1 G45       0.168000
     44 H10         -2.5600    -3.0710    -0.9380 ha         1 G45       0.161000
     45 H11         -0.7510    -3.5520     0.6450 ha         1 G45       0.148000
     46 H12          3.3800    -2.4660     0.7170 ha         1 G45       0.149000
     47 H13          0.4600     0.3630    -0.6040 ha         1 G45       0.148000
     48 H14          4.6580    -0.8730     0.8320 hc         1 G45       0.038700
     49 H15          5.0470    -0.7480    -2.1940 hc         1 G45       0.038367
     50 H16          5.8660    -1.7780    -1.0330 hc         1 G45       0.038367
     51 H17          4.1770    -2.0690    -1.4230 hc         1 G45       0.038367
     52 H18          5.4500     1.4500     0.7850 hc         1 G45       0.038367
     53 H19          6.5790     0.3980    -0.0560 hc         1 G45       0.038367
     54 H20          5.4970     1.4270    -0.9820 hc         1 G45       0.038367
     55 H21          3.6050    -0.6200     3.0680 hc         1 G45       0.058033
     56 H22          2.7150     0.3450     4.2410 hc         1 G45       0.058033
     57 H23          1.8480    -0.6270     3.0540 hc         1 G45       0.058033
     58 H24          2.4410     2.7420     3.6150 hn         1 G45       0.330700
     59 S30         -5.1850     1.0930    -0.3580 sy         1 G45       1.331200
@<TRIPOS>BOND
     1     1     2 3   
     2     2    29 1   
     3     3     6 1   
     4     3    35 1   
     5     3    36 1   
     6     4     5 1   
     7     4     7 1   
     8     4    30 2   
     9     5    33 2   
    10     5    34 1   
    11     6    29 2   
    12     6    34 1   
    13     7    25 1   
    14     7    26 1   
    15     7    29 1   
    16     8    59 2   
    17     9    59 2   
    18    10    11 1   
    19    10    12 1   
    20    10    59 1   
    21    11    37 1   
    22    11    38 1   
    23    11    39 1   
    24    12    40 1   
    25    12    41 1   
    26    12    42 1   
    27    13    14 2   
    28    13    16 1   
    29    13    59 1   
    30    14    15 1   
    31    14    43 1   
    32    15    17 2   
    33    15    44 1   
    34    16    17 1   
    35    17    18 1   
    36    18    19 ar  
    37    18    24 ar  
    38    19    20 ar  
    39    19    45 1   
    40    20    21 1   
    41    20    23 ar  
    42    21    22 3   
    43    23    25 ar  
    44    23    46 1   
    45    24    25 ar  
    46    24    47 1   
    47    26    27 1   
    48    26    28 1   
    49    26    48 1   
    50    27    49 1   
    51    27    50 1   
    52    27    51 1   
    53    28    52 1   
    54    28    53 1   
    55    28    54 1   
    56    30    31 1   
    57    30    32 1   
    58    31    55 1   
    59    31    56 1   
    60    31    57 1   
    61    32    33 1   
    62    32    58 1   
@<TRIPOS>SUBSTRUCTURE
     1 G45         1 TEMP              0 ****  ****    0 ROOT
