@<TRIPOS>MOLECULE
G4A
   45    48     1     0     0
SMALL
bcc


@<TRIPOS>ATOM
      1 C            5.2620     2.4640     0.0950 ca         1 G4A      -0.098000
      2 C2           4.3050     0.2830    -0.2590 ca         1 G4A       0.036100
      3 C3           4.1840     1.6000     0.1450 ca         1 G4A      -0.062200
      4 C10         -2.5990    -3.0970     0.4920 ca         1 G4A      -0.101000
      5 C11         -0.2890    -3.2770    -0.1780 ca         1 G4A      -0.089100
      6 C12         -1.3350    -2.5360     0.3600 ca         1 G4A      -0.019200
      7 C13          0.3370    -0.9550     0.4220 cc         1 G4A       0.201500
      8 C14         -2.7740    -4.4100     0.0870 ca         1 G4A      -0.085000
      9 C15         -1.7200    -5.1530    -0.4410 ca         1 G4A      -0.118000
     10 C16         -0.4610    -4.5910    -0.5810 ca         1 G4A      -0.066000
     11 C18         -2.6150     0.5110     0.2520 c3         1 G4A      -0.051400
     12 C19         -3.5540     1.5000     0.9180 c3         1 G4A      -0.252600
     13 C4           2.2380     0.5840     0.3770 cd         1 G4A       0.548900
     14 C5           0.9100     0.2940     0.6340 cf         1 G4A      -0.442600
     15 C7           6.4580     1.9310    -0.3740 ca         1 G4A      -0.102000
     16 C8           6.5650     0.5990    -0.7740 ca         1 G4A      -0.111000
     17 C9           5.4750    -0.2660    -0.7250 ca         1 G4A      -0.080000
     18 N20          2.8670     1.7510     0.5520 na         1 G4A      -0.165200
     19 N21         -0.9420    -1.2530     0.7110 na         1 G4A      -0.017400
     20 O22          3.0860    -0.3230    -0.1030 os         1 G4A      -0.266700
     21 O23         -5.2540     3.4430     0.5470 o          1 G4A      -0.682533
     22 O24         -3.3410     3.2680    -0.9980 o          1 G4A      -0.682533
     23 O25         -5.1850     1.6410    -1.1320 o          1 G4A      -0.682533
     24 S26          1.1610    -2.3220    -0.2590 ss         1 G4A       0.036500
     25 S27         -4.4070     2.5530    -0.2700 s6         1 G4A       1.207800
     26 H1           5.1890     3.4990     0.3990 ha         1 G4A       0.160000
     27 H2          -3.4340    -2.5360     0.8910 ha         1 G4A       0.170000
     28 H3          -3.7520    -4.8610     0.1800 ha         1 G4A       0.155000
     29 H4          -1.8850    -6.1760    -0.7500 ha         1 G4A       0.150000
     30 H5           0.3630    -5.1580    -0.9950 ha         1 G4A       0.151000
     31 H6          -1.3170     0.3440     1.9880 h1         1 G4A       0.069200
     32 H7          -2.5640    -0.8630     1.9280 h1         1 G4A       0.069200
     33 H8          -1.8990     1.0450    -0.3760 hc         1 G4A       0.067200
     34 H9          -3.1780    -0.1620    -0.3980 hc         1 G4A       0.067200
     35 H10         -4.3170     0.9840     1.5040 h1         1 G4A       0.069700
     36 H11         -3.0090     2.1630     1.5950 h1         1 G4A       0.069700
     37 H12          0.2990     1.1020     1.0060 ha         1 G4A       0.193000
     38 H14          1.7110     3.4730     0.2510 h1         1 G4A       0.076367
     39 H15          1.5870     2.7410     1.8670 h1         1 G4A       0.076367
     40 H16          3.0390     3.6250     1.4170 h1         1 G4A       0.076367
     41 H17          7.3280     2.5710    -0.4290 ha         1 G4A       0.154000
     42 H18          7.5150     0.2270    -1.1310 ha         1 G4A       0.154000
     43 H19          5.5470    -1.3000    -1.0330 ha         1 G4A       0.167000
     44 C6           2.2590     2.9690     1.0440 c3         1 G4A       0.031600
     45 C17         -1.8700    -0.3000     1.3050 c3         1 G4A       0.018300
@<TRIPOS>BOND
     1     1     3 ar  
     2     1    15 ar  
     3     1    26 1   
     4     2     3 ar  
     5     2    17 ar  
     6     2    20 1   
     7     3    18 1   
     8     4     6 ar  
     9     4     8 ar  
    10     4    27 1   
    11     5     6 ar  
    12     5    10 ar  
    13     5    24 1   
    14     6    19 1   
    15     7    14 2   
    16     7    19 1   
    17     7    24 1   
    18     8     9 ar  
    19     8    28 1   
    20     9    10 ar  
    21     9    29 1   
    22    10    30 1   
    23    11    12 1   
    24    11    33 1   
    25    11    34 1   
    26    11    45 1   
    27    12    25 1   
    28    12    35 1   
    29    12    36 1   
    30    13    14 1   
    31    13    18 2   
    32    13    20 1   
    33    14    37 1   
    34    15    16 ar  
    35    15    41 1   
    36    16    17 ar  
    37    16    42 1   
    38    17    43 1   
    39    18    44 1   
    40    19    45 1   
    41    21    25 1   
    42    22    25 1   
    43    23    25 1   
    44    31    45 1   
    45    32    45 1   
    46    38    44 1   
    47    39    44 1   
    48    40    44 1   
@<TRIPOS>SUBSTRUCTURE
     1 G4A         1 TEMP              0 ****  ****    0 ROOT
