@<TRIPOS>MOLECULE
G4A
   45    48     1     0     0
SMALL
No Charge or Current Charge


@<TRIPOS>ATOM
      1 C            5.4910     2.1270     0.6240 ca         1 G4A      -0.080000
      2 C2           4.3920     0.5000    -0.7790 ca         1 G4A       0.036100
      3 C3           4.3250     1.5080     0.1460 ca         1 G4A      -0.062200
      4 C10         -2.5070    -3.0010     0.7380 ca         1 G4A      -0.083000
      5 C11         -0.2710    -3.1740    -0.1670 ca         1 G4A      -0.216000
      6 C12         -1.2910    -2.3980     0.3470 ca         1 G4A      -0.019200
      7 C13          0.2720    -0.7530    -0.1860 cc         1 G4A       0.201500
      8 C14         -2.6520    -4.3970     0.6130 ca         1 G4A      -0.067000
      9 C15         -1.5980    -5.1790     0.0980 ca         1 G4A      -0.100000
     10 C16         -0.3960    -4.5660    -0.3000 ca         1 G4A      -0.048000
     11 C18         -2.8900     0.5620     0.0760 c3         1 G4A      -0.051400
     12 C19         -3.8310     1.5780     0.7740 c3         1 G4A      -0.363400
     13 C4           2.2590     0.8430    -0.3210 cd         1 G4A       0.548900
     14 C5           0.8490     0.4900    -0.2440 cf         1 G4A      -0.492600
     15 C7           6.7320     1.6750     0.1200 ca         1 G4A      -0.084000
     16 C8           6.7860     0.6300    -0.8380 ca         1 G4A      -0.093000
     17 C9           5.5980     0.0250    -1.3020 ca         1 G4A      -0.062000
     18 N20          2.9950     1.7500     0.4700 na         1 G4A      -0.194500
     19 N21         -0.9740    -1.0440     0.4000 na         1 G4A      -0.046700
     20 O22          3.1370     0.0920    -1.0630 os         1 G4A      -0.266700
     21 O23         -5.7860     3.2510     0.5480 o          1 G4A      -0.682533
     22 O24         -4.1980     3.0360    -1.3360 o          1 G4A      -0.682533
     23 O25         -5.8090     1.2180    -0.8600 o          1 G4A      -0.682533
     24 S26          1.1540    -2.2390    -0.6440 ss         1 G4A       0.163400
     25 S27         -5.0330     2.3520    -0.3380 s6         1 G4A       1.318600
     26 H1           5.4470     2.9290     1.3580 ha         1 G4A       0.142000
     27 H2          -3.3350    -2.4150     1.1280 ha         1 G4A       0.152000
     28 H3          -3.5840    -4.8740     0.9130 ha         1 G4A       0.137000
     29 H4          -1.7160    -6.2560     0.0020 ha         1 G4A       0.132000
     30 H5           0.4190    -5.1620    -0.7080 ha         1 G4A       0.133000
     31 H6          -1.2860     0.7120     1.5290 h1         1 G4A       0.069200
     32 H7          -2.4230    -0.5740     1.8690 h1         1 G4A       0.069200
     33 H8          -2.3370     1.0620    -0.7300 hc         1 G4A       0.067200
     34 H9          -3.4850    -0.2330    -0.3920 hc         1 G4A       0.067200
     35 H10         -4.4140     1.0840     1.5590 h1         1 G4A       0.069700
     36 H11         -3.2510     2.3960     1.2160 h1         1 G4A       0.069700
     37 H12          0.2250     1.3140     0.0930 ha         1 G4A       0.243000
     38 H14          2.6870     3.6780     1.2720 h1         1 G4A       0.076367
     39 H15          1.4800     2.4590     1.7730 h1         1 G4A       0.076367
     40 H16          3.1230     2.4220     2.4690 h1         1 G4A       0.076367
     41 H17          7.6550     2.1340     0.4700 ha         1 G4A       0.136000
     42 H18          7.7490     0.2920    -1.2170 ha         1 G4A       0.136000
     43 H19          5.6170    -0.7770    -2.0370 ha         1 G4A       0.149000
     44 C6           2.5430     2.6300     1.5610 c3         1 G4A       0.060900
     45 C17         -1.8830    -0.0760     1.0550 c3         1 G4A       0.047600
@<TRIPOS>BOND
     1     1     3 ar  
     2     1    15 ar  
     3     1    26 1   
     4     2     3 ar  
     5     2    17 ar  
     6     2    20 1   
     7     3    18 1   
     8     4     6 ar  
     9     4     8 ar  
    10     4    27 1   
    11     5     6 ar  
    12     5    10 ar  
    13     5    24 1   
    14     6    19 1   
    15     7    14 2   
    16     7    19 1   
    17     7    24 1   
    18     8     9 ar  
    19     8    28 1   
    20     9    10 ar  
    21     9    29 1   
    22    10    30 1   
    23    11    12 1   
    24    11    33 1   
    25    11    34 1   
    26    11    45 1   
    27    12    25 1   
    28    12    35 1   
    29    12    36 1   
    30    13    14 1   
    31    13    18 2   
    32    13    20 1   
    33    14    37 1   
    34    15    16 ar  
    35    15    41 1   
    36    16    17 ar  
    37    16    42 1   
    38    17    43 1   
    39    18    44 1   
    40    19    45 1   
    41    21    25 1   
    42    22    25 1   
    43    23    25 1   
    44    31    45 1   
    45    32    45 1   
    46    38    44 1   
    47    39    44 1   
    48    40    44 1   
@<TRIPOS>SUBSTRUCTURE
     1 G4A         1 TEMP              0 ****  ****    0 ROOT
