@<TRIPOS>MOLECULE
G4B
  118   120     1     0     0
SMALL
No Charge or Current Charge


@<TRIPOS>ATOM
      1 C1          15.1210    -3.2190     1.2000 c3         1 G4B      -0.088100
      2 C2          13.7980    -2.5910     1.6800 c3         1 G4B      -0.075400
      3 C3          13.0720    -1.7920     0.5760 c3         1 G4B      -0.075400
      4 C4          11.7460    -1.1630     1.0580 c3         1 G4B      -0.075400
      5 C5          11.0200    -0.3640    -0.0470 c3         1 G4B      -0.073400
      6 C6           9.6940     0.2640     0.4310 c3         1 G4B      -0.045200
      7 C7           8.9990     1.0380    -0.6730 c2         1 G4B      -0.201200
      8 C8           7.9970     0.6040    -1.4570 c2         1 G4B      -0.202200
      9 C15          3.1920     0.9980    -0.4940 c3         1 G4B      -0.043100
     10 C16          4.2520     1.8100     0.2440 ca         1 G4B      -0.118300
     11 C17          5.1620     2.6130    -0.4730 ca         1 G4B      -0.060000
     12 C18          6.1510     3.3430     0.2090 ca         1 G4B      -0.173000
     13 C19          6.2350     3.2770     1.6070 ca         1 G4B       0.141100
     14 C21          4.3400     1.7510     1.6490 ca         1 G4B      -0.060000
     15 C23          2.4940    -1.2610    -1.4920 c          1 G4B       0.596100
     16 C31         -1.2010    -1.3240    -1.1040 c          1 G4B       0.587100
     17 C34         -3.6890    -1.2330    -1.5140 c3         1 G4B       0.082700
     18 C36         -3.9040     0.1030    -2.2830 c3         1 G4B       0.149600
     19 C38         -5.4200     1.1680    -0.7030 c          1 G4B       0.597100
     20 C40         -6.9350     1.3080    -0.4010 c3         1 G4B       0.067700
     21 C9           7.3550    -0.7790    -1.4440 c3         1 G4B      -0.122200
     22 C10          6.0850    -0.8110    -0.5830 c          1 G4B       0.608100
     23 O11          6.1140    -0.9580     0.6310 o          1 G4B      -0.594100
     24 N12          4.9070    -0.6450    -1.2790 ns         1 G4B      -0.496900
     25 C13          3.5670    -0.5000    -0.6620 c3         1 G4B       0.030700
     26 C20          5.3290     2.4830     2.3290 ca         1 G4B      -0.173000
     27 O22          7.1980     3.9880     2.2600 oh         1 G4B      -0.536100
     28 N25          1.2770    -1.4230    -0.8620 ns         1 G4B      -0.483900
     29 C26          0.0980    -2.1160    -1.4360 c3         1 G4B       0.028700
     30 C28          0.0170    -3.6100    -0.9810 c3         1 G4B      -0.064700
     31 C29          1.2150    -4.4510    -1.4830 c3         1 G4B      -0.094100
     32 N33         -2.3440    -1.7800    -1.7270 ns         1 G4B      -0.510900
     33 O37         -5.2130     0.6170    -1.9470 os         1 G4B      -0.466100
     34 O39         -4.5230     1.4820     0.0690 o          1 G4B      -0.441000
     35 C42         -7.2830     2.5400     0.4760 c3         1 G4B      -0.027100
     36 C43         -7.1370     3.8470    -0.2940 ca         1 G4B      -0.125300
     37 C44         -8.1500     4.2630    -1.1800 ca         1 G4B      -0.058000
     38 C45         -8.0110     5.4640    -1.8980 ca         1 G4B      -0.176500
     39 C46         -6.8630     6.2530    -1.7350 ca         1 G4B       0.142100
     40 C47         -5.8490     5.8440    -0.8540 ca         1 G4B      -0.176500
     41 C48         -5.9850     4.6430    -0.1350 ca         1 G4B      -0.058000
     42 O49         -6.7380     7.4150    -2.4350 oh         1 G4B      -0.535100
     43 N50         -7.4370    -0.0000     0.1030 ns         1 G4B      -0.508900
     44 C51         -7.4290    -0.4630     1.4120 c          1 G4B       0.562100
     45 O52         -7.1170     0.2490     2.3560 o          1 G4B      -0.560100
     46 C53         -7.7460    -1.9940     1.5470 c3         1 G4B       0.059700
     47 N55         -6.9530    -2.7370     0.5330 ns         1 G4B      -0.509900
     48 C56         -5.5730    -2.7670     0.4910 c          1 G4B       0.601100
     49 O57         -4.8780    -2.2940     1.3760 o          1 G4B      -0.556100
     50 C58         -4.9780    -3.3940    -0.7730 c3         1 G4B      -0.169400
     51 C59         -4.7550    -2.3130    -1.8660 c3         1 G4B      -0.084400
     52 C60         -7.6180    -2.5750     2.9960 c3         1 G4B      -0.057700
     53 C61         -8.7460    -2.0590     3.9260 c3         1 G4B      -0.088100
     54 C62         -7.5850    -4.1260     3.0270 c3         1 G4B      -0.088100
     55 H1          15.5980    -3.7740     2.0160 hc         1 G4B       0.031367
     56 H2          14.9420    -3.9130     0.3710 hc         1 G4B       0.031367
     57 H3          15.8180    -2.4430     0.8600 hc         1 G4B       0.031367
     58 H4          13.1380    -3.3870     2.0470 hc         1 G4B       0.036700
     59 H5          14.0060    -1.9300     2.5310 hc         1 G4B       0.036700
     60 H6          13.7360    -0.9980     0.2110 hc         1 G4B       0.037200
     61 H7          12.8680    -2.4550    -0.2730 hc         1 G4B       0.037200
     62 H8          11.0830    -1.9570     1.4230 hc         1 G4B       0.037200
     63 H9          11.9500    -0.4990     1.9080 hc         1 G4B       0.037200
     64 H10         11.6820     0.4310    -0.4130 hc         1 G4B       0.038700
     65 H11         10.8160    -1.0270    -0.8970 hc         1 G4B       0.038700
     66 H12          9.0440    -0.5290     0.8190 hc         1 G4B       0.046700
     67 H13          9.8930     0.9310     1.2790 hc         1 G4B       0.046700
     68 H14          9.3710     2.0580    -0.7920 ha         1 G4B       0.168000
     69 H15          7.5760     1.2780    -2.2060 ha         1 G4B       0.178000
     70 H16          2.2350     1.0760     0.0360 hc         1 G4B       0.062200
     71 H17          3.0170     1.4300    -1.4880 hc         1 G4B       0.062200
     72 H18          5.1090     2.6660    -1.5580 ha         1 G4B       0.111500
     73 H19          6.8540     3.9560    -0.3480 ha         1 G4B       0.120000
     74 H20          3.6460     1.1310     2.2130 ha         1 G4B       0.111500
     75 H21         -1.0670    -3.2410     0.8950 hc         1 G4B       0.042867
     76 H22         -0.2770    -4.8220     0.8180 hc         1 G4B       0.042867
     77 H23          0.6960    -3.3650     1.0950 hc         1 G4B       0.042867
     78 H24         -3.7730    -0.9910    -0.4470 h1         1 G4B       0.111700
     79 H25         -3.1160     0.8240    -2.0270 h1         1 G4B       0.070200
     80 H26         -3.8390    -0.0950    -3.3610 h1         1 G4B       0.070200
     81 H27         -7.4210     1.4640    -1.3730 h1         1 G4B       0.070700
     82 H28          7.1000    -1.0400    -2.4780 hc         1 G4B       0.062200
     83 H29          8.0600    -1.5200    -1.0520 hc         1 G4B       0.062200
     84 H30          4.9810    -0.5690    -2.2870 hn         1 G4B       0.324500
     85 H31          3.5820    -0.9690     0.3300 h1         1 G4B       0.096700
     86 H32          5.3870     2.4250     3.4130 ha         1 G4B       0.120000
     87 H33          7.1060     3.8220     3.2220 ho         1 G4B       0.465000
     88 H34          1.1790    -1.0070     0.0570 hn         1 G4B       0.335500
     89 H35          0.1810    -2.0980    -2.5310 h1         1 G4B       0.088700
     90 H36         -0.8730    -4.0460    -1.4510 hc         1 G4B       0.039700
     91 H37          2.1490    -4.1360    -1.0040 hc         1 G4B       0.042867
     92 H38          1.0610    -5.5130    -1.2570 hc         1 G4B       0.042867
     93 H39          1.3320    -4.3510    -2.5680 hc         1 G4B       0.042867
     94 H40         -2.2400    -2.5760    -2.3460 hn         1 G4B       0.311500
     95 H41         -8.3180     2.4420     0.8270 hc         1 G4B       0.068200
     96 H42         -6.6560     2.5570     1.3750 hc         1 G4B       0.068200
     97 H43         -9.0440     3.6570    -1.3140 ha         1 G4B       0.115500
     98 H44         -8.7950     5.7820    -2.5800 ha         1 G4B       0.121000
     99 H45         -4.9550     6.4480    -0.7220 ha         1 G4B       0.121000
    100 H46         -5.1940     4.3320     0.5450 ha         1 G4B       0.115500
    101 H47         -5.8820     7.8300    -2.1960 ho         1 G4B       0.465000
    102 H48         -7.7050    -0.6880    -0.5920 hn         1 G4B       0.317500
    103 H49         -8.7950    -2.1070     1.2440 h1         1 G4B       0.046700
    104 H50         -7.4420    -3.1890    -0.2310 hn         1 G4B       0.301500
    105 H51         -4.0220    -3.8740    -0.5350 hc         1 G4B       0.068700
    106 H52         -5.6840    -4.1250    -1.1840 hc         1 G4B       0.068700
    107 H53         -5.7230    -1.8360    -2.0570 hc         1 G4B       0.050200
    108 H54         -4.4770    -2.8000    -2.8090 hc         1 G4B       0.050200
    109 H55         -6.6630    -2.2300     3.4140 hc         1 G4B       0.099700
    110 H56         -8.6140    -2.4430     4.9450 hc         1 G4B       0.036367
    111 H57         -8.7540    -0.9650     3.9850 hc         1 G4B       0.036367
    112 H58         -9.7280    -2.3870     3.5650 hc         1 G4B       0.036367
    113 H59         -6.7030    -4.5190     2.5090 hc         1 G4B       0.036367
    114 H60         -7.5450    -4.4920     4.0600 hc         1 G4B       0.036367
    115 H61         -8.4810    -4.5440     2.5520 hc         1 G4B       0.036367
    116 O24          2.7000    -1.6870    -2.6230 o          1 G4B      -0.613100
    117 O32         -1.2240    -0.3650    -0.3420 o          1 G4B      -0.576100
    118 C30         -0.1680    -3.7650     0.5490 c3         1 G4B      -0.094100
@<TRIPOS>BOND
     1     1     2 1   
     2     1    55 1   
     3     1    56 1   
     4     1    57 1   
     5     2     3 1   
     6     2    58 1   
     7     2    59 1   
     8     3     4 1   
     9     3    60 1   
    10     3    61 1   
    11     4     5 1   
    12     4    62 1   
    13     4    63 1   
    14     5     6 1   
    15     5    64 1   
    16     5    65 1   
    17     6     7 1   
    18     6    66 1   
    19     6    67 1   
    20     7     8 2   
    21     7    68 1   
    22     8    21 1   
    23     8    69 1   
    24     9    10 1   
    25     9    25 1   
    26     9    70 1   
    27     9    71 1   
    28    10    11 ar  
    29    10    14 ar  
    30    11    12 ar  
    31    11    72 1   
    32    12    13 ar  
    33    12    73 1   
    34    13    26 ar  
    35    13    27 1   
    36    14    26 ar  
    37    14    74 1   
    38    15    25 1   
    39    15    28 1   
    40    15   116 2   
    41    16    29 1   
    42    16    32 1   
    43    16   117 2   
    44    17    18 1   
    45    17    32 1   
    46    17    51 1   
    47    17    78 1   
    48    18    33 1   
    49    18    79 1   
    50    18    80 1   
    51    19    20 1   
    52    19    33 1   
    53    19    34 2   
    54    20    35 1   
    55    20    43 1   
    56    20    81 1   
    57    21    22 1   
    58    21    82 1   
    59    21    83 1   
    60    22    23 2   
    61    22    24 1   
    62    24    25 1   
    63    24    84 1   
    64    25    85 1   
    65    26    86 1   
    66    27    87 1   
    67    28    29 1   
    68    28    88 1   
    69    29    30 1   
    70    29    89 1   
    71    30    31 1   
    72    30    90 1   
    73    30   118 1   
    74    31    91 1   
    75    31    92 1   
    76    31    93 1   
    77    32    94 1   
    78    35    36 1   
    79    35    95 1   
    80    35    96 1   
    81    36    37 ar  
    82    36    41 ar  
    83    37    38 ar  
    84    37    97 1   
    85    38    39 ar  
    86    38    98 1   
    87    39    40 ar  
    88    39    42 1   
    89    40    41 ar  
    90    40    99 1   
    91    41   100 1   
    92    42   101 1   
    93    43    44 1   
    94    43   102 1   
    95    44    45 2   
    96    44    46 1   
    97    46    47 1   
    98    46    52 1   
    99    46   103 1   
   100    47    48 1   
   101    47   104 1   
   102    48    49 2   
   103    48    50 1   
   104    50    51 1   
   105    50   105 1   
   106    50   106 1   
   107    51   107 1   
   108    51   108 1   
   109    52    53 1   
   110    52    54 1   
   111    52   109 1   
   112    53   110 1   
   113    53   111 1   
   114    53   112 1   
   115    54   113 1   
   116    54   114 1   
   117    54   115 1   
   118    75   118 1   
   119    76   118 1   
   120    77   118 1   
@<TRIPOS>SUBSTRUCTURE
     1 G4B         1 TEMP              0 ****  ****    0 ROOT
