@<TRIPOS>MOLECULE
G4B
  118   120     1     0     0
SMALL
bcc


@<TRIPOS>ATOM
      1 C1          14.9650    -3.6950    -1.3510 c3         1 G4B      -0.088100
      2 C2          13.5160    -3.7520    -0.8880 c3         1 G4B      -0.075400
      3 C3          12.9750    -2.3890    -0.4730 c3         1 G4B      -0.075400
      4 C4          11.5310    -2.4350     0.0120 c3         1 G4B      -0.075400
      5 C5          10.9890    -1.0660     0.4020 c3         1 G4B      -0.073400
      6 C6           9.5540    -1.1220     0.9270 c3         1 G4B      -0.045200
      7 C7           9.0450     0.2280     1.3190 c2         1 G4B      -0.151200
      8 C8           7.9460     0.8460     0.8920 c2         1 G4B      -0.152200
      9 C15          2.5230     1.5510    -0.0330 c3         1 G4B      -0.043100
     10 C16          3.2960     2.5610     0.7630 ca         1 G4B      -0.118300
     11 C17          4.3120     3.3080     0.1750 ca         1 G4B      -0.078000
     12 C18          5.0850     4.1910     0.9120 ca         1 G4B      -0.191000
     13 C19          4.8460     4.3480     2.2750 ca         1 G4B       0.141100
     14 C21          3.0700     2.7320     2.1240 ca         1 G4B      -0.078000
     15 C23          2.4050    -0.8100    -0.8480 c          1 G4B       0.663100
     16 C31         -1.0490    -1.4700    -0.7890 c          1 G4B       0.654100
     17 C34         -3.4050    -1.6400    -1.4710 c3         1 G4B       0.082700
     18 C36         -3.7870    -0.4820    -2.3920 c3         1 G4B       0.126400
     19 C38         -5.3260     1.0340    -1.3630 c          1 G4B       0.646100
     20 C40         -6.7750     1.0980    -0.8830 c3         1 G4B       0.067700
     21 C9           6.9500     0.3270    -0.0930 c3         1 G4B      -0.122200
     22 C10          5.5810     0.1350     0.5360 c          1 G4B       0.675100
     23 O11          5.4390    -0.0840     1.7270 o          1 G4B      -0.594100
     24 N12          4.5560     0.1920    -0.3380 ns         1 G4B      -0.563900
     25 C13          3.1760     0.1510     0.0500 c3         1 G4B       0.030700
     26 C20          3.8270     3.6160     2.8780 ca         1 G4B      -0.191000
     27 O22          5.6200     5.2180     2.9570 oh         1 G4B      -0.497100
     28 N25          1.3070    -1.3270    -0.2760 ns         1 G4B      -0.550900
     29 C26          0.3240    -2.1140    -0.9700 c3         1 G4B       0.028700
     30 C28          0.3020    -3.5850    -0.4960 c3         1 G4B      -0.064700
     31 C29          1.6690    -4.2270    -0.6930 c3         1 G4B      -0.094100
     32 N33         -2.0010    -1.9620    -1.6000 ns         1 G4B      -0.577900
     33 O37         -5.1190    -0.0790    -2.0600 os         1 G4B      -0.442900
     34 O39         -4.5060     1.8920    -1.1850 o          1 G4B      -0.490000
     35 C42         -7.0670     2.3770    -0.0910 c3         1 G4B      -0.027100
     36 C43         -7.0890     3.6100    -0.9540 ca         1 G4B      -0.125300
     37 C44         -8.0840     3.7780    -1.9160 ca         1 G4B      -0.076000
     38 C45         -8.1370     4.9030    -2.7210 ca         1 G4B      -0.194500
     39 C46         -7.1810     5.9060    -2.5750 ca         1 G4B       0.142100
     40 C47         -6.1850     5.7590    -1.6150 ca         1 G4B      -0.194500
     41 C48         -6.1440     4.6200    -0.8230 ca         1 G4B      -0.076000
     42 O49         -7.2710     6.9860    -3.3790 oh         1 G4B      -0.496100
     43 N50         -7.1280    -0.1100    -0.1680 ns         1 G4B      -0.575900
     44 C51         -6.3690    -0.6130     0.8190 c          1 G4B       0.629100
     45 O52         -5.3500    -0.0600     1.2010 o          1 G4B      -0.560100
     46 C53         -6.8150    -1.9770     1.3570 c3         1 G4B       0.059700
     47 N55         -6.0920    -2.9850     0.5940 ns         1 G4B      -0.576900
     48 C56         -4.7690    -3.2730     0.6670 c          1 G4B       0.668100
     49 O57         -4.0670    -3.0200     1.6300 o          1 G4B      -0.556100
     50 C58         -4.2180    -3.9040    -0.5970 c3         1 G4B      -0.169400
     51 C59         -4.2400    -2.8920    -1.7460 c3         1 G4B      -0.084400
     52 C60         -6.7070    -2.0730     2.8790 c3         1 G4B      -0.057700
     53 C61         -7.6510    -1.0530     3.5120 c3         1 G4B      -0.088100
     54 C62         -7.0430    -3.4790     3.3620 c3         1 G4B      -0.088100
     55 H1          15.3340    -4.6780    -1.6450 hc         1 G4B       0.031367
     56 H2          15.0800    -3.0280    -2.2070 hc         1 G4B       0.031367
     57 H3          15.6160    -3.3230    -0.5560 hc         1 G4B       0.031367
     58 H4          12.8890    -4.1610    -1.6870 hc         1 G4B       0.036700
     59 H5          13.4260    -4.4470    -0.0480 hc         1 G4B       0.036700
     60 H6          13.6100    -1.9730     0.3180 hc         1 G4B       0.037200
     61 H7          13.0540    -1.6970    -1.3190 hc         1 G4B       0.037200
     62 H8          10.8960    -2.8660    -0.7700 hc         1 G4B       0.037200
     63 H9          11.4570    -3.1120     0.8700 hc         1 G4B       0.037200
     64 H10         11.6370    -0.6210     1.1650 hc         1 G4B       0.038700
     65 H11         11.0330    -0.3960    -0.4630 hc         1 G4B       0.038700
     66 H12          8.9100    -1.5890     0.1790 hc         1 G4B       0.046700
     67 H13          9.5290    -1.7790     1.8040 hc         1 G4B       0.046700
     68 H14          9.6670     0.7600     2.0350 ha         1 G4B       0.118000
     69 H15          7.7320     1.8350     1.2860 ha         1 G4B       0.128000
     70 H16          1.4940     1.4800     0.3250 hc         1 G4B       0.062200
     71 H17          2.4730     1.8560    -1.0820 hc         1 G4B       0.062200
     72 H18          4.5070     3.2050    -0.8860 ha         1 G4B       0.129500
     73 H19          5.8700     4.7630     0.4330 ha         1 G4B       0.138000
     74 H20          2.2860     2.1650     2.6150 ha         1 G4B       0.129500
     75 H21         -1.2070    -3.4070     1.0860 hc         1 G4B       0.042867
     76 H22         -0.1190    -4.7740     1.2530 hc         1 G4B       0.042867
     77 H23          0.4540    -3.1590     1.6370 hc         1 G4B       0.042867
     78 H24         -3.5580    -1.2950    -0.4460 h1         1 G4B       0.111700
     79 H25         -3.0850     0.3440    -2.2810 h1         1 G4B       0.070200
     80 H26         -3.7990    -0.7920    -3.4380 h1         1 G4B       0.070200
     81 H27         -7.4000     1.0980    -1.7810 h1         1 G4B       0.070700
     82 H28          6.8720     1.0110    -0.9440 hc         1 G4B       0.062200
     83 H29          7.2570    -0.6360    -0.5090 hc         1 G4B       0.062200
     84 H30          4.7580     0.4060    -1.3020 hn         1 G4B       0.324500
     85 H31          3.1320    -0.1920     1.0850 h1         1 G4B       0.096700
     86 H32          3.6230     3.7340     3.9360 ha         1 G4B       0.138000
     87 H33          5.3610     5.2390     3.8850 ho         1 G4B       0.426000
     88 H34          1.0920    -1.0570     0.6710 hn         1 G4B       0.335500
     89 H35          0.5840    -2.1080    -2.0320 h1         1 G4B       0.088700
     90 H36         -0.4070    -4.1110    -1.1430 hc         1 G4B       0.039700
     91 H37          2.4200    -3.7740    -0.0430 hc         1 G4B       0.042867
     92 H38          1.6240    -5.2900    -0.4530 hc         1 G4B       0.042867
     93 H39          2.0150    -4.1300    -1.7230 hc         1 G4B       0.042867
     94 H40         -1.7350    -2.6180    -2.3180 hn         1 G4B       0.311500
     95 H41         -8.0490     2.2440     0.3720 hc         1 G4B       0.068200
     96 H42         -6.3480     2.4840     0.7200 hc         1 G4B       0.068200
     97 H43         -8.8460     3.0160    -2.0400 ha         1 G4B       0.133500
     98 H44         -8.9210     5.0100    -3.4610 ha         1 G4B       0.139000
     99 H45         -5.4340     6.5300    -1.4840 ha         1 G4B       0.139000
    100 H46         -5.3560     4.5250    -0.0860 ha         1 G4B       0.133500
    101 H47         -6.5680     7.6140    -3.1800 ho         1 G4B       0.426000
    102 H48         -7.9570    -0.6000    -0.4620 hn         1 G4B       0.317500
    103 H49         -7.8680    -2.1340     1.1000 h1         1 G4B       0.046700
    104 H50         -6.5560    -3.2650    -0.2560 hn         1 G4B       0.301500
    105 H51         -3.2030    -4.2500    -0.4000 hc         1 G4B       0.068700
    106 H52         -4.8100    -4.7790    -0.8790 hc         1 G4B       0.068700
    107 H53         -5.2690    -2.6000    -1.9570 hc         1 G4B       0.050200
    108 H54         -3.8790    -3.3700    -2.6610 hc         1 G4B       0.050200
    109 H55         -5.6870    -1.8310     3.1790 hc         1 G4B       0.099700
    110 H56         -7.5980    -1.1110     4.6000 hc         1 G4B       0.036367
    111 H57         -7.4040    -0.0280     3.2320 hc         1 G4B       0.036367
    112 H58         -8.6880    -1.2390     3.2210 hc         1 G4B       0.036367
    113 H59         -6.3580    -4.2250     2.9630 hc         1 G4B       0.036367
    114 H60         -6.9860    -3.5280     4.4500 hc         1 G4B       0.036367
    115 H61         -8.0570    -3.7640     3.0720 hc         1 G4B       0.036367
    116 O24          2.7520    -1.0310    -1.9970 o          1 G4B      -0.613100
    117 O32         -1.2580    -0.6190     0.0590 o          1 G4B      -0.576100
    118 C30         -0.1730    -3.7280     0.9470 c3         1 G4B      -0.094100
@<TRIPOS>BOND
     1     1     2 1   
     2     1    55 1   
     3     1    56 1   
     4     1    57 1   
     5     2     3 1   
     6     2    58 1   
     7     2    59 1   
     8     3     4 1   
     9     3    60 1   
    10     3    61 1   
    11     4     5 1   
    12     4    62 1   
    13     4    63 1   
    14     5     6 1   
    15     5    64 1   
    16     5    65 1   
    17     6     7 1   
    18     6    66 1   
    19     6    67 1   
    20     7     8 2   
    21     7    68 1   
    22     8    21 1   
    23     8    69 1   
    24     9    10 1   
    25     9    25 1   
    26     9    70 1   
    27     9    71 1   
    28    10    11 ar  
    29    10    14 ar  
    30    11    12 ar  
    31    11    72 1   
    32    12    13 ar  
    33    12    73 1   
    34    13    26 ar  
    35    13    27 1   
    36    14    26 ar  
    37    14    74 1   
    38    15    25 1   
    39    15    28 1   
    40    15   116 2   
    41    16    29 1   
    42    16    32 1   
    43    16   117 2   
    44    17    18 1   
    45    17    32 1   
    46    17    51 1   
    47    17    78 1   
    48    18    33 1   
    49    18    79 1   
    50    18    80 1   
    51    19    20 1   
    52    19    33 1   
    53    19    34 2   
    54    20    35 1   
    55    20    43 1   
    56    20    81 1   
    57    21    22 1   
    58    21    82 1   
    59    21    83 1   
    60    22    23 2   
    61    22    24 1   
    62    24    25 1   
    63    24    84 1   
    64    25    85 1   
    65    26    86 1   
    66    27    87 1   
    67    28    29 1   
    68    28    88 1   
    69    29    30 1   
    70    29    89 1   
    71    30    31 1   
    72    30    90 1   
    73    30   118 1   
    74    31    91 1   
    75    31    92 1   
    76    31    93 1   
    77    32    94 1   
    78    35    36 1   
    79    35    95 1   
    80    35    96 1   
    81    36    37 ar  
    82    36    41 ar  
    83    37    38 ar  
    84    37    97 1   
    85    38    39 ar  
    86    38    98 1   
    87    39    40 ar  
    88    39    42 1   
    89    40    41 ar  
    90    40    99 1   
    91    41   100 1   
    92    42   101 1   
    93    43    44 1   
    94    43   102 1   
    95    44    45 2   
    96    44    46 1   
    97    46    47 1   
    98    46    52 1   
    99    46   103 1   
   100    47    48 1   
   101    47   104 1   
   102    48    49 2   
   103    48    50 1   
   104    50    51 1   
   105    50   105 1   
   106    50   106 1   
   107    51   107 1   
   108    51   108 1   
   109    52    53 1   
   110    52    54 1   
   111    52   109 1   
   112    53   110 1   
   113    53   111 1   
   114    53   112 1   
   115    54   113 1   
   116    54   114 1   
   117    54   115 1   
   118    75   118 1   
   119    76   118 1   
   120    77   118 1   
@<TRIPOS>SUBSTRUCTURE
     1 G4B         1 TEMP              0 ****  ****    0 ROOT
