@<TRIPOS>MOLECULE
G4C
   59    61     1     0     0
SMALL
abcg2


@<TRIPOS>ATOM
      1 C10         14.5940    18.9050    -3.1590 ca         1 G4C      -0.103000
      2 C12         14.1840    17.8330    -1.0500 ca         1 G4C      -0.103000
      3 C03         12.5360    12.5840    -5.0270 c6         1 G4C       0.118700
      4 C05         12.7550    14.8560    -4.2140 c          1 G4C       0.621100
      5 C06         12.0540    16.1140    -3.7050 c3         1 G4C      -0.118100
      6 C07         13.0250    17.0390    -3.0450 ca         1 G4C      -0.043300
      7 C08         13.7110    18.0210    -3.7580 ca         1 G4C       0.142000
      8 C11         14.8220    18.8090    -1.7970 ca         1 G4C      -0.092000
      9 C13         13.3090    16.9650    -1.6810 ca         1 G4C       0.142000
     10 C18          9.7930    12.9670    -5.4600 ca         1 G4C      -0.089300
     11 O15         13.9570    14.7250    -4.0610 o          1 G4C      -0.570100
     12 C16         10.6180    14.2130    -5.2550 c6         1 G4C       0.169000
     13 C17         10.6400    15.0100    -6.5670 c3         1 G4C      -0.112100
     14 C19         10.3840    11.8400    -6.0340 ca         1 G4C      -0.070300
     15 C20          9.6060    10.7150    -6.3330 ca         1 G4C      -0.062300
     16 C21         10.1940     9.4620    -6.9400 c3         1 G4C      -0.029100
     17 C22          9.4030     8.8150    -8.0820 c3         1 G4C      -0.098400
     18 C23          9.5460     9.4490    -9.4760 c3         1 G4C       0.184000
     19 C24          9.1230    10.9160    -9.4960 c3         1 G4C      -0.100100
     20 C26         10.9720     9.3150    -9.9960 c3         1 G4C      -0.100100
     21 C27          8.2480    10.7500    -6.0140 ca         1 G4C      -0.109000
     22 C28          7.6670    11.8620    -5.4290 ca         1 G4C      -0.107000
     23 C29          8.4410    12.9800    -5.1550 ca         1 G4C      -0.103000
     24 C30         11.8730    11.9230    -6.2330 c6         1 G4C      -0.049100
     25 N04         11.9710    13.9070    -4.7830 n          1 G4C      -0.413800
     26 O25          8.7390     8.7040   -10.3820 oh         1 G4C      -0.662000
     27 CL9         13.4780    18.1460    -5.4730 cl         1 G4C      -0.200500
     28 CL4         12.5630    15.7290    -0.7200 cl         1 G4C      -0.200500
     29 H1          15.1000    19.6550    -3.7510 ha         1 G4C       0.132000
     30 H2          14.3700    17.7440     0.0110 ha         1 G4C       0.132000
     31 H5          13.5980    12.7030    -5.2440 h1         1 G4C       0.090700
     32 H6          11.5360    16.6360    -4.5100 hc         1 G4C       0.076200
     33 H7          11.2760    15.8220    -2.9970 hc         1 G4C       0.076200
     34 H8          15.5070    19.4940    -1.3150 ha         1 G4C       0.122000
     35 H9          10.1130    14.8140    -4.4970 h1         1 G4C       0.056700
     36 H10         11.2440    15.9150    -6.4890 hc         1 G4C       0.045033
     37 H11         11.0440    14.4140    -7.3860 hc         1 G4C       0.045033
     38 H12          9.6270    15.3090    -6.8360 hc         1 G4C       0.045033
     39 H13         10.2960     8.7190    -6.1430 hc         1 G4C       0.049700
     40 H14         11.2110     9.6450    -7.2850 hc         1 G4C       0.049700
     41 H15          8.3390     8.7760    -7.8270 hc         1 G4C       0.045200
     42 H16          9.7260     7.7740    -8.1650 hc         1 G4C       0.045200
     43 H17          8.1040    11.0440    -9.1230 hc         1 G4C       0.042533
     44 H18          9.7750    11.5360    -8.8810 hc         1 G4C       0.042533
     45 H19          9.1620    11.3030   -10.5160 hc         1 G4C       0.042533
     46 H20         11.3060     8.2760    -9.9780 hc         1 G4C       0.042533
     47 H21         11.0430     9.6780   -11.0240 hc         1 G4C       0.042533
     48 H22         11.6680     9.9020    -9.3970 hc         1 G4C       0.042533
     49 H23          7.6280     9.8860    -6.2170 ha         1 G4C       0.112000
     50 H24          6.6130    11.8570    -5.1850 ha         1 G4C       0.116000
     51 H25          7.9960    13.8590    -4.7030 ha         1 G4C       0.115000
     52 H26         12.3240    10.9410    -6.3650 hc         1 G4C       0.061700
     53 H27         12.1180    12.4830    -7.1410 hc         1 G4C       0.061700
     54 H28         12.6810    11.7600    -1.9030 ho         1 G4C       0.440000
     55 H29          7.8230     8.7670   -10.0880 ho         1 G4C       0.438000
     56 C02         12.3770    11.6750    -3.8070 c3         1 G4C       0.147600
     57 O01         12.9590    12.2640    -2.6720 oh         1 G4C      -0.640000
     58 H3          11.3120    11.4720    -3.6450 h1         1 G4C       0.020700
     59 H4          12.8510    10.7130    -4.0530 h1         1 G4C       0.020700
@<TRIPOS>BOND
     1     1     7 ar  
     2     1     8 ar  
     3     1    29 1   
     4     2     8 ar  
     5     2     9 ar  
     6     2    30 1   
     7     3    24 1   
     8     3    25 1   
     9     3    31 1   
    10     3    56 1   
    11     4     5 1   
    12     4    11 2   
    13     4    25 1   
    14     5     6 1   
    15     5    32 1   
    16     5    33 1   
    17     6     7 ar  
    18     6     9 ar  
    19     7    27 1   
    20     8    34 1   
    21     9    28 1   
    22    10    12 1   
    23    10    14 ar  
    24    10    23 ar  
    25    12    13 1   
    26    12    25 1   
    27    12    35 1   
    28    13    36 1   
    29    13    37 1   
    30    13    38 1   
    31    14    15 ar  
    32    14    24 1   
    33    15    16 1   
    34    15    21 ar  
    35    16    17 1   
    36    16    39 1   
    37    16    40 1   
    38    17    18 1   
    39    17    41 1   
    40    17    42 1   
    41    18    19 1   
    42    18    20 1   
    43    18    26 1   
    44    19    43 1   
    45    19    44 1   
    46    19    45 1   
    47    20    46 1   
    48    20    47 1   
    49    20    48 1   
    50    21    22 ar  
    51    21    49 1   
    52    22    23 ar  
    53    22    50 1   
    54    23    51 1   
    55    24    52 1   
    56    24    53 1   
    57    26    55 1   
    58    54    57 1   
    59    56    57 1   
    60    56    58 1   
    61    56    59 1   
@<TRIPOS>SUBSTRUCTURE
     1 G4C         1 TEMP              0 ****  ****    0 ROOT
