@<TRIPOS>MOLECULE
G4C
   59    61     1     0     0
SMALL
No Charge or Current Charge


@<TRIPOS>ATOM
      1 C10         14.6000    19.0100    -3.4260 ca         1 G4C      -0.103000
      2 C12         14.3310    18.0610    -1.2090 ca         1 G4C      -0.103000
      3 C03         12.4960    12.4110    -5.0010 c6         1 G4C       0.118700
      4 C05         12.7660    14.8000    -4.2010 c          1 G4C       0.621100
      5 C06         12.1010    16.0830    -3.6620 c3         1 G4C      -0.118100
      6 C07         13.0860    17.1140    -3.0930 ca         1 G4C      -0.043300
      7 C08         13.6940    18.0680    -3.9430 ca         1 G4C       0.142000
      8 C11         14.9180    19.0110    -2.0590 ca         1 G4C      -0.092000
      9 C13         13.4250    17.1150    -1.7180 ca         1 G4C       0.142000
     10 C18          9.7050    12.7930    -5.4350 ca         1 G4C      -0.089300
     11 O15         13.9750    14.6390    -4.0830 o          1 G4C      -0.570100
     12 C16         10.5580    14.0600    -5.2590 c6         1 G4C       0.169000
     13 C17         10.5320    14.8300    -6.6090 c3         1 G4C      -0.112100
     14 C19         10.2850    11.6180    -5.9610 ca         1 G4C      -0.070300
     15 C20          9.4630    10.4900    -6.2460 ca         1 G4C      -0.062300
     16 C21          9.9750     9.1900    -6.8830 c3         1 G4C      -0.029100
     17 C22          9.3540     8.8590    -8.2710 c3         1 G4C      -0.098400
     18 C23          9.7390     9.7720    -9.4770 c3         1 G4C       0.184000
     19 C24          9.1810    11.2110    -9.3580 c3         1 G4C      -0.100100
     20 C26         11.2660     9.7980    -9.7250 c3         1 G4C      -0.100100
     21 C27          8.0890    10.5560    -5.9320 ca         1 G4C      -0.109000
     22 C28          7.5270    11.7150    -5.3810 ca         1 G4C      -0.107000
     23 C29          8.3300    12.8370    -5.1450 ca         1 G4C      -0.103000
     24 C30         11.8050    11.6640    -6.1730 c6         1 G4C      -0.049100
     25 N04         11.9620    13.8020    -4.8090 n          1 G4C      -0.413800
     26 O25          9.1420     9.1930   -10.6390 oh         1 G4C      -0.662000
     27 Cl9         13.3510    18.1040    -5.6740 cl         1 G4C      -0.200500
     28 Cl4         12.7400    15.9350    -0.5990 cl         1 G4C      -0.200500
     29 H1          15.0580    19.7400    -4.0890 ha         1 G4C       0.132000
     30 H2          14.5820    18.0530    -0.1510 ha         1 G4C       0.132000
     31 H5          13.5690    12.4630    -5.2350 h1         1 G4C       0.090700
     32 H6          11.4560    16.5100    -4.4340 hc         1 G4C       0.076200
     33 H7          11.3340    15.7760    -2.9440 hc         1 G4C       0.076200
     34 H8          15.6200    19.7410    -1.6610 ha         1 G4C       0.122000
     35 H9          10.0530    14.6820    -4.5070 h1         1 G4C       0.056700
     36 H10         11.1030    15.7630    -6.5600 hc         1 G4C       0.045033
     37 H11         10.9550    14.2320    -7.4240 hc         1 G4C       0.045033
     38 H12          9.5040    15.0880    -6.8910 hc         1 G4C       0.045033
     39 H13          9.7230     8.3630    -6.2070 hc         1 G4C       0.049700
     40 H14         11.0610     9.1420    -6.9710 hc         1 G4C       0.049700
     41 H15          8.2610     8.8320    -8.1750 hc         1 G4C       0.045200
     42 H16          9.6490     7.8310    -8.5180 hc         1 G4C       0.045200
     43 H17          8.1210    11.2040    -9.0760 hc         1 G4C       0.042533
     44 H18          9.7300    11.7910    -8.6100 hc         1 G4C       0.042533
     45 H19          9.2750    11.7460   -10.3110 hc         1 G4C       0.042533
     46 H20         11.6660     8.7810    -9.8130 hc         1 G4C       0.042533
     47 H21         11.5010    10.3360   -10.6510 hc         1 G4C       0.042533
     48 H22         11.7910    10.3020    -8.9070 hc         1 G4C       0.042533
     49 H23          7.4470     9.6990    -6.1200 ha         1 G4C       0.112000
     50 H24          6.4640    11.7490    -5.1530 ha         1 G4C       0.116000
     51 H25          7.8810    13.7450    -4.7470 ha         1 G4C       0.115000
     52 H26         12.2560    10.6700    -6.2440 hc         1 G4C       0.061700
     53 H27         12.0340    12.1670    -7.1220 hc         1 G4C       0.061700
     54 H28         12.8930    11.4500    -1.8210 ho         1 G4C       0.440000
     55 H29          8.1710     9.2060   -10.4960 ho         1 G4C       0.438000
     56 C02         12.3430    11.5410    -3.7020 c3         1 G4C       0.147600
     57 O01         13.0680    12.0550    -2.5750 oh         1 G4C      -0.640000
     58 H3          11.2770    11.4690    -3.4490 h1         1 G4C       0.020700
     59 H4          12.6920    10.5240    -3.9250 h1         1 G4C       0.020700
@<TRIPOS>BOND
     1     1     7 ar  
     2     1     8 ar  
     3     1    29 1   
     4     2     8 ar  
     5     2     9 ar  
     6     2    30 1   
     7     3    24 1   
     8     3    25 1   
     9     3    31 1   
    10     3    56 1   
    11     4     5 1   
    12     4    11 2   
    13     4    25 1   
    14     5     6 1   
    15     5    32 1   
    16     5    33 1   
    17     6     7 ar  
    18     6     9 ar  
    19     7    27 1   
    20     8    34 1   
    21     9    28 1   
    22    10    12 1   
    23    10    14 ar  
    24    10    23 ar  
    25    12    13 1   
    26    12    25 1   
    27    12    35 1   
    28    13    36 1   
    29    13    37 1   
    30    13    38 1   
    31    14    15 ar  
    32    14    24 1   
    33    15    16 1   
    34    15    21 ar  
    35    16    17 1   
    36    16    39 1   
    37    16    40 1   
    38    17    18 1   
    39    17    41 1   
    40    17    42 1   
    41    18    19 1   
    42    18    20 1   
    43    18    26 1   
    44    19    43 1   
    45    19    44 1   
    46    19    45 1   
    47    20    46 1   
    48    20    47 1   
    49    20    48 1   
    50    21    22 ar  
    51    21    49 1   
    52    22    23 ar  
    53    22    50 1   
    54    23    51 1   
    55    24    52 1   
    56    24    53 1   
    57    26    55 1   
    58    54    57 1   
    59    56    57 1   
    60    56    58 1   
    61    56    59 1   
@<TRIPOS>SUBSTRUCTURE
     1 G4C         1 TEMP              0 ****  ****    0 ROOT
