@<TRIPOS>MOLECULE
G4D
   23    23     1     0     0
SMALL
No Charge or Current Charge


@<TRIPOS>ATOM
      1 C1          66.0170    93.9300     8.9980 c6         1 G4D       0.387300
      2 C2          67.3790    93.8730     9.7860 c6         1 G4D       0.159300
      3 C3          68.4370    94.7790     9.0920 c6         1 G4D       0.132300
      4 C4          68.5810    94.3700     7.6070 c6         1 G4D      -0.137400
      5 C5          67.1960    94.4190     6.9020 c6         1 G4D       0.177300
      6 C6          67.2620    93.9420     5.4100 c3         1 G4D       0.168600
      7 O1          65.4040    95.2230     9.0110 oh         1 G4D      -0.727000
      8 O2          67.2670    94.2310    11.1820 oh         1 G4D      -0.705000
      9 O3          69.7030    94.6720     9.7690 oh         1 G4D      -0.728000
     10 O5          66.2390    93.5850     7.6160 os         1 G4D      -0.473000
     11 O6          67.6060    92.5490     5.2520 oh         1 G4D      -0.707000
     12 H1          65.3300    93.1930     9.4440 h2         1 G4D       0.076700
     13 H2          67.7390    92.8350     9.7140 h1         1 G4D       0.055700
     14 H3          68.0810    95.8200     9.1290 h1         1 G4D       0.055700
     15 H4          69.2800    95.0440     7.0940 hc         1 G4D       0.063700
     16 H42         69.0030    93.3580     7.5340 hc         1 G4D       0.063700
     17 H5          66.8350    95.4580     6.8960 h1         1 G4D       0.044700
     18 H61         66.2820    94.1370     4.9530 h1         1 G4D       0.025200
     19 H62         67.9920    94.5710     4.8820 h1         1 G4D       0.025200
     20 HO1         64.6150    95.1280     8.4350 ho         1 G4D       0.511000
     21 HO2         68.1870    94.4950    11.4290 ho         1 G4D       0.519000
     22 HO3         70.3420    95.2440     9.2810 ho         1 G4D       0.509000
     23 HO6         67.5400    92.3460     4.2900 ho         1 G4D       0.501000
@<TRIPOS>BOND
     1     1     2 1   
     2     1     7 1   
     3     1    10 1   
     4     1    12 1   
     5     2     3 1   
     6     2     8 1   
     7     2    13 1   
     8     3     4 1   
     9     3     9 1   
    10     3    14 1   
    11     4     5 1   
    12     4    15 1   
    13     4    16 1   
    14     5     6 1   
    15     5    10 1   
    16     5    17 1   
    17     6    11 1   
    18     6    18 1   
    19     6    19 1   
    20     7    20 1   
    21     8    21 1   
    22     9    22 1   
    23    11    23 1   
@<TRIPOS>SUBSTRUCTURE
     1 G4D         1 TEMP              0 ****  ****    0 ROOT
