@<TRIPOS>MOLECULE
G4D
   23    23     1     0     0
SMALL
bcc


@<TRIPOS>ATOM
      1 C1          66.0790    93.9760     8.9340 c6         1 G4D       0.340900
      2 C2          67.4050    93.9180     9.6910 c6         1 G4D       0.136100
      3 C3          68.4490    94.7890     9.0060 c6         1 G4D       0.109100
      4 C4          68.5650    94.3600     7.5480 c6         1 G4D      -0.137400
      5 C5          67.2000    94.4020     6.8750 c6         1 G4D       0.154100
      6 C6          67.2110    93.9130     5.4420 c3         1 G4D       0.145400
      7 O1          65.5460    95.2550     9.0720 oh         1 G4D      -0.604800
      8 O2          67.1700    94.2830    11.0250 oh         1 G4D      -0.582800
      9 O3          69.6550    94.6210     9.7200 oh         1 G4D      -0.605800
     10 O5          66.2630    93.6110     7.5950 os         1 G4D      -0.426600
     11 O6          67.6910    92.5920     5.3820 oh         1 G4D      -0.584800
     12 H1          65.3950    93.2200     9.3390 h2         1 G4D       0.076700
     13 H2          67.7530    92.8740     9.6230 h1         1 G4D       0.055700
     14 H3          68.1220    95.8380     9.0490 h1         1 G4D       0.055700
     15 H4          69.2520    95.0220     7.0130 hc         1 G4D       0.063700
     16 H42         68.9800    93.3500     7.5010 hc         1 G4D       0.063700
     17 H5          66.8580    95.4450     6.8360 h1         1 G4D       0.044700
     18 H61         66.1940    93.9950     5.0360 h1         1 G4D       0.025200
     19 H62         67.8400    94.6050     4.8660 h1         1 G4D       0.025200
     20 HO1         64.6340    95.2470     8.7620 ho         1 G4D       0.412000
     21 HO2         68.0100    94.2410    11.4920 ho         1 G4D       0.420000
     22 HO3         70.2740    95.3020     9.4410 ho         1 G4D       0.410000
     23 HO6         67.7700    92.3430     4.4570 ho         1 G4D       0.402000
@<TRIPOS>BOND
     1     1     2 1   
     2     1     7 1   
     3     1    10 1   
     4     1    12 1   
     5     2     3 1   
     6     2     8 1   
     7     2    13 1   
     8     3     4 1   
     9     3     9 1   
    10     3    14 1   
    11     4     5 1   
    12     4    15 1   
    13     4    16 1   
    14     5     6 1   
    15     5    10 1   
    16     5    17 1   
    17     6    11 1   
    18     6    18 1   
    19     6    19 1   
    20     7    20 1   
    21     8    21 1   
    22     9    22 1   
    23    11    23 1   
@<TRIPOS>SUBSTRUCTURE
     1 G4D         1 TEMP              0 ****  ****    0 ROOT
