@<TRIPOS>MOLECULE
G4E
   46    49     1     0     0
SMALL
bcc


@<TRIPOS>ATOM
      1 C1           7.2660    -0.0820    -0.4370 ca         1 G4E      -0.042300
      2 C2           6.4170     1.9590     0.5250 ca         1 G4E      -0.096000
      3 C3           5.9650    -0.5890    -0.5170 ca         1 G4E      -0.135300
      4 C4           5.1200     1.4770     0.4540 ca         1 G4E      -0.158000
      5 C5           4.8900     0.2030    -0.0670 ca         1 G4E       0.184600
      6 C6          -7.3860    -0.6270     0.2250 ca         1 G4E      -0.301800
      7 C7          -6.0330    -0.3790     0.0160 ca         1 G4E       0.173100
      8 C8          -8.2820    -0.2100    -0.7400 ca         1 G4E       0.428200
      9 C9          -5.6460     0.2740    -1.1480 ca         1 G4E      -0.301800
     10 N2           1.2630    -0.4840     0.0800 na         1 G4E      -0.489700
     11 C20          8.4480    -0.8900    -0.8980 c3         1 G4E      -0.048800
     12 C19          5.6930    -1.9640    -1.0630 c3         1 G4E      -0.049800
     13 C            7.4810     1.1920     0.0850 ca         1 G4E      -0.156000
     14 N4           3.6110    -0.3400    -0.1710 nu         1 G4E      -0.755300
     15 C18          2.4340     0.1720     0.2710 cc         1 G4E       0.661400
     16 N3           2.2120     1.2910     0.9150 nd         1 G4E      -0.409000
     17 N1           0.8760     1.3640     1.1490 nd         1 G4E      -0.332000
     18 C17          0.3090     0.3060     0.6500 cc         1 G4E       0.434000
     19 C11         -1.1160     0.0040     0.7010 ca         1 G4E      -0.116500
     20 C13         -1.6340    -1.1960     0.2190 ca         1 G4E      -0.098500
     21 C15         -2.9930    -1.4600     0.2890 ca         1 G4E      -0.133000
     22 C16         -3.8390    -0.5200     0.8520 ca         1 G4E       0.101100
     23 C14         -3.3450     0.6840     1.3360 ca         1 G4E      -0.133000
     24 C12         -1.9890     0.9400     1.2600 ca         1 G4E      -0.098500
     25 O           -5.1790    -0.8020     0.9720 os         1 G4E      -0.248200
     26 C10         -6.6400     0.6440    -2.0420 ca         1 G4E       0.428200
     27 N           -7.9340     0.4170    -1.8610 nb         1 G4E      -0.684000
     28 H1           6.5920     2.9470     0.9310 ha         1 G4E       0.135000
     29 H2           4.2960     2.0800     0.8020 ha         1 G4E       0.176000
     30 H4          -9.3410    -0.3930    -0.5950 h4         1 G4E       0.020100
     31 H5          -4.6130     0.4960    -1.3770 ha         1 G4E       0.154000
     32 H6           1.1340    -1.3600    -0.4040 hn         1 G4E       0.306700
     33 H7           8.5390    -1.8280    -0.3480 hc         1 G4E       0.042033
     34 H8           8.3810    -1.1450    -1.9570 hc         1 G4E       0.042033
     35 H9           9.3730    -0.3340    -0.7520 hc         1 G4E       0.042033
     36 H10          5.2110    -2.6060    -0.3200 hc         1 G4E       0.038700
     37 H11          5.0410    -1.9380    -1.9410 hc         1 G4E       0.038700
     38 H12          6.6040    -2.4700    -1.3710 hc         1 G4E       0.038700
     39 H13          8.4900     1.5780     0.1500 ha         1 G4E       0.132000
     40 H14          3.5400    -1.2310    -0.6340 hn         1 G4E       0.439800
     41 H15         -0.9910    -1.9500    -0.2170 ha         1 G4E       0.145500
     42 H16         -3.3860    -2.3960    -0.0850 ha         1 G4E       0.152500
     43 H17         -4.0130     1.4120     1.7770 ha         1 G4E       0.152500
     44 H18         -1.6030     1.8750     1.6420 ha         1 G4E       0.145500
     45 H19         -6.3590     1.1560    -2.9560 h4         1 G4E       0.020100
     46 H3          -7.7300    -1.1310     1.1180 ha         1 G4E       0.154000
@<TRIPOS>BOND
     1     1     3 ar  
     2     1    11 1   
     3     1    13 ar  
     4     2     4 ar  
     5     2    13 ar  
     6     2    28 1   
     7     3     5 ar  
     8     3    12 1   
     9     4     5 ar  
    10     4    29 1   
    11     5    14 1   
    12     6     7 ar  
    13     6     8 ar  
    14     6    46 1   
    15     7     9 ar  
    16     7    25 1   
    17     8    27 ar  
    18     8    30 1   
    19     9    26 ar  
    20     9    31 1   
    21    10    15 1   
    22    10    18 1   
    23    10    32 1   
    24    11    33 1   
    25    11    34 1   
    26    11    35 1   
    27    12    36 1   
    28    12    37 1   
    29    12    38 1   
    30    13    39 1   
    31    14    15 1   
    32    14    40 1   
    33    15    16 2   
    34    16    17 1   
    35    17    18 2   
    36    18    19 1   
    37    19    20 ar  
    38    19    24 ar  
    39    20    21 ar  
    40    20    41 1   
    41    21    22 ar  
    42    21    42 1   
    43    22    23 ar  
    44    22    25 1   
    45    23    24 ar  
    46    23    43 1   
    47    24    44 1   
    48    26    27 ar  
    49    26    45 1   
@<TRIPOS>SUBSTRUCTURE
     1 G4E         1 TEMP              0 ****  ****    0 ROOT
