@<TRIPOS>MOLECULE
G4E
   46    49     1     0     0
SMALL
No Charge or Current Charge


@<TRIPOS>ATOM
      1 C1           7.3770    -0.0360    -0.0600 ca         1 G4E      -0.042300
      2 C2           6.4570     2.2190    -0.2280 ca         1 G4E      -0.078000
      3 C3           6.0760    -0.5840    -0.2240 ca         1 G4E      -0.135300
      4 C4           5.1750     1.6830    -0.4050 ca         1 G4E      -0.140000
      5 C5           4.9730     0.2920    -0.4000 ca         1 G4E       0.323000
      6 C6          -7.3880    -0.7550     0.5350 ca         1 G4E      -0.218500
      7 C7          -6.1740    -0.4940    -0.1070 ca         1 G4E       0.173100
      8 C8          -8.4460     0.1530     0.3810 ca         1 G4E       0.362900
      9 C9          -6.0670     0.6590    -0.8990 ca         1 G4E      -0.218500
     10 N2           1.3540    -0.5220    -0.4530 na         1 G4E      -0.540000
     11 C20          8.6120    -0.9200     0.1070 c3         1 G4E      -0.048800
     12 C19          5.8610    -2.1070    -0.2180 c3         1 G4E      -0.049800
     13 C            7.5510     1.3610    -0.0570 ca         1 G4E      -0.138000
     14 N4           3.6900    -0.2180    -0.6110 nu         1 G4E      -0.948900
     15 C18          2.4700     0.1700    -0.1730 cc         1 G4E       0.661400
     16 N3           2.1990     1.2020     0.5910 nd         1 G4E      -0.409000
     17 N1           0.8390     1.1940     0.8080 nd         1 G4E      -0.332000
     18 C17          0.3350     0.1450     0.1700 cc         1 G4E       0.434000
     19 C11         -1.0810    -0.2500     0.1310 ca         1 G4E      -0.116500
     20 C13         -1.4980    -1.4020    -0.5770 ca         1 G4E      -0.080500
     21 C15         -2.8540    -1.7700    -0.6080 ca         1 G4E      -0.115000
     22 C16         -3.8130    -0.9930     0.0580 ca         1 G4E       0.101100
     23 C14         -3.4110     0.1460     0.7780 ca         1 G4E      -0.115000
     24 C12         -2.0550     0.5170     0.8100 ca         1 G4E      -0.080500
     25 O           -5.1330    -1.3850     0.0220 os         1 G4E      -0.248200
     26 C10         -7.1740     1.5140    -1.0000 ca         1 G4E       0.362900
     27 N           -8.3480     1.2730    -0.3710 nb         1 G4E      -0.684000
     28 H1           6.6040     3.2970    -0.2330 ha         1 G4E       0.117000
     29 H2           4.3370     2.3540    -0.5620 ha         1 G4E       0.158000
     30 H4          -9.4020    -0.0210     0.8720 h4         1 G4E       0.020100
     31 H5          -5.1530     0.8940    -1.4340 ha         1 G4E       0.136000
     32 H6           1.2820    -1.3500    -1.0180 hn         1 G4E       0.357000
     33 H7           8.5950    -1.4420     1.0710 hc         1 G4E       0.042033
     34 H8           8.6730    -1.6720    -0.6880 hc         1 G4E       0.042033
     35 H9           9.5390    -0.3360     0.0690 hc         1 G4E       0.042033
     36 H10          4.9200    -2.3860     0.2710 hc         1 G4E       0.038700
     37 H11          5.8380    -2.5010    -1.2410 hc         1 G4E       0.038700
     38 H12          6.6450    -2.6450     0.3250 hc         1 G4E       0.038700
     39 H13          8.5430     1.7890     0.0710 ha         1 G4E       0.114000
     40 H14          3.6760    -1.1740    -0.9510 hn         1 G4E       0.495000
     41 H15         -0.7770    -2.0200    -1.1070 ha         1 G4E       0.127500
     42 H16         -3.1640    -2.6590    -1.1530 ha         1 G4E       0.134500
     43 H17         -4.1440     0.7430     1.3150 ha         1 G4E       0.134500
     44 H18         -1.7660     1.4040     1.3700 ha         1 G4E       0.127500
     45 H19         -7.1230     2.4180    -1.6050 h4         1 G4E       0.020100
     46 H3          -7.5140    -1.6420     1.1460 ha         1 G4E       0.136000
@<TRIPOS>BOND
     1     1     3 ar  
     2     1    11 1   
     3     1    13 ar  
     4     2     4 ar  
     5     2    13 ar  
     6     2    28 1   
     7     3     5 ar  
     8     3    12 1   
     9     4     5 ar  
    10     4    29 1   
    11     5    14 1   
    12     6     7 ar  
    13     6     8 ar  
    14     6    46 1   
    15     7     9 ar  
    16     7    25 1   
    17     8    27 ar  
    18     8    30 1   
    19     9    26 ar  
    20     9    31 1   
    21    10    15 1   
    22    10    18 1   
    23    10    32 1   
    24    11    33 1   
    25    11    34 1   
    26    11    35 1   
    27    12    36 1   
    28    12    37 1   
    29    12    38 1   
    30    13    39 1   
    31    14    15 1   
    32    14    40 1   
    33    15    16 2   
    34    16    17 1   
    35    17    18 2   
    36    18    19 1   
    37    19    20 ar  
    38    19    24 ar  
    39    20    21 ar  
    40    20    41 1   
    41    21    22 ar  
    42    21    42 1   
    43    22    23 ar  
    44    22    25 1   
    45    23    24 ar  
    46    23    43 1   
    47    24    44 1   
    48    26    27 ar  
    49    26    45 1   
@<TRIPOS>SUBSTRUCTURE
     1 G4E         1 TEMP              0 ****  ****    0 ROOT
