@<TRIPOS>MOLECULE
G4F
   61    64     1     0     0
SMALL
No Charge or Current Charge


@<TRIPOS>ATOM
      1 O13          0.2370     0.1400     3.5760 o          1 G4F      -0.849500
      2 P            0.6930     0.3280     2.1690 p5         1 G4F       1.457800
      3 O4           0.7560     1.7620     1.7620 o          1 G4F      -0.849500
      4 O5           1.9820    -0.4860     1.7840 os         1 G4F      -0.692800
      5 P1           3.1510    -0.2830     2.8150 p5         1 G4F       1.470800
      6 O11          3.0360    -1.1990     3.9880 o          1 G4F      -0.840000
      7 O12          3.4250     1.1290     3.2090 o          1 G4F      -0.840000
      8 O6           4.3320    -0.8110     1.8620 os         1 G4F      -0.596400
      9 C8           4.9710     0.1120     0.9710 c6         1 G4F       0.419300
     10 O8           6.0970    -0.5740     0.3750 os         1 G4F      -0.461000
     11 C10          5.7360    -1.7070    -0.4660 c6         1 G4F       0.153300
     12 C11          7.0470    -2.3860    -0.9840 c3         1 G4F       0.172600
     13 O9           7.9310    -2.7990     0.0720 oh         1 G4F      -0.663000
     14 C12          4.8240    -1.2400    -1.6340 c6         1 G4F       0.124300
     15 F            4.3590    -2.3750    -2.3380 f          1 G4F      -0.297000
     16 C13          3.5880    -0.4520    -1.1080 c6         1 G4F       0.155300
     17 O10          2.8200     0.0830    -2.2090 oh         1 G4F      -0.660000
     18 C9           4.0390     0.7030    -0.1630 c6         1 G4F       0.136300
     19 O7           4.7070     1.7140    -0.9590 oh         1 G4F      -0.729000
     20 O3          -0.3080    -0.4690     1.1890 os         1 G4F      -0.581400
     21 C7          -0.2980    -0.1980    -0.2240 c3         1 G4F       0.227600
     22 C6          -1.5100     0.6900    -0.6440 c5         1 G4F       0.153300
     23 C5          -2.0130     1.7810     0.3490 c5         1 G4F       0.078300
     24 O2          -1.1390     2.9150     0.4600 oh         1 G4F      -0.714000
     25 C4          -3.3580     2.1600    -0.3340 c5         1 G4F       0.088300
     26 O1          -3.0800     3.1030    -1.3780 oh         1 G4F      -0.713000
     27 O14         -2.6860    -0.1200    -0.8450 os         1 G4F      -0.369000
     28 C3          -3.8440     0.7520    -0.8620 c5         1 G4F       0.323300
     29 N1          -4.9230     0.1000    -0.1190 na         1 G4F      -0.206500
     30 C2          -5.0870     0.0740     1.2560 cc         1 G4F       0.508400
     31 N           -6.2080    -0.5640     1.5980 nd         1 G4F      -0.609000
     32 C14         -6.0070    -0.5450    -0.6550 cc         1 G4F       0.070400
     33 C1          -6.7900    -0.9550     0.3980 cd         1 G4F       0.113500
     34 N2          -6.2980    -0.7600    -1.9870 nc         1 G4F      -0.681100
     35 C15         -7.4190    -1.4190    -2.1700 cd         1 G4F       0.681800
     36 N3          -7.7500    -1.6480    -3.4300 nv         1 G4F      -1.062200
     37 N4          -8.2650    -1.8740    -1.2210 ns         1 G4F      -0.459400
     38 C           -8.0560    -1.7000     0.1180 c          1 G4F       0.517500
     39 O           -8.8410    -2.1220     0.9580 o          1 G4F      -0.549000
     40 H3           5.3600     0.9580     1.5600 h2         1 G4F       0.083700
     41 H4           5.1940    -2.4490     0.1400 h1         1 G4F       0.112700
     42 H5           6.7690    -3.2560    -1.5920 h1         1 G4F       0.003200
     43 H6           7.5640    -1.6780    -1.6450 h1         1 G4F       0.003200
     44 H7           8.7490    -3.1370    -0.3580 ho         1 G4F       0.473000
     45 H8           5.4010    -0.6240    -2.3370 h1         1 G4F       0.059700
     46 H9           2.9680    -1.1500    -0.5220 h1         1 G4F       0.087700
     47 H10          2.6530    -0.6680    -2.8220 ho         1 G4F       0.430000
     48 H11          3.1480     1.1500     0.2980 h1         1 G4F       0.061700
     49 H12          4.1850     1.7440    -1.7960 ho         1 G4F       0.494000
     50 H13          0.6240     0.3240    -0.5100 h1         1 G4F       0.019200
     51 H14         -0.3260    -1.1370    -0.7920 h1         1 G4F       0.019200
     52 H15         -1.2520     1.1430    -1.6120 h1         1 G4F       0.078700
     53 H16         -2.1980     1.3430     1.3400 h1         1 G4F       0.060700
     54 H17         -0.3370     2.5800     0.9800 ho         1 G4F       0.492000
     55 H18         -4.0660     2.5910     0.3860 h1         1 G4F       0.062700
     56 H19         -2.2460     3.5350    -1.0570 ho         1 G4F       0.508000
     57 H20         -4.2100     0.8600    -1.8910 h2         1 G4F       0.107700
     58 H21         -4.3710     0.5190     1.9380 h5         1 G4F       0.155100
     59 H22         -7.2060    -1.1200    -4.1010 hn         1 G4F       0.481000
     60 H23         -8.7350    -1.7500    -3.6440 hn         1 G4F       0.481000
     61 H24         -9.0920    -2.3840    -1.4860 hn         1 G4F       0.297500
@<TRIPOS>BOND
     1     1     2 1   
     2     2     3 1   
     3     2     4 1   
     4     2    20 1   
     5     4     5 1   
     6     5     6 1   
     7     5     7 1   
     8     5     8 1   
     9     8     9 1   
    10     9    10 1   
    11     9    18 1   
    12     9    40 1   
    13    10    11 1   
    14    11    12 1   
    15    11    14 1   
    16    11    41 1   
    17    12    13 1   
    18    12    42 1   
    19    12    43 1   
    20    13    44 1   
    21    14    15 1   
    22    14    16 1   
    23    14    45 1   
    24    16    17 1   
    25    16    18 1   
    26    16    46 1   
    27    17    47 1   
    28    18    19 1   
    29    18    48 1   
    30    19    49 1   
    31    20    21 1   
    32    21    22 1   
    33    21    50 1   
    34    21    51 1   
    35    22    23 1   
    36    22    27 1   
    37    22    52 1   
    38    23    24 1   
    39    23    25 1   
    40    23    53 1   
    41    24    54 1   
    42    25    26 1   
    43    25    28 1   
    44    25    55 1   
    45    26    56 1   
    46    27    28 1   
    47    28    29 1   
    48    28    57 1   
    49    29    30 1   
    50    29    32 1   
    51    30    31 2   
    52    30    58 1   
    53    31    33 1   
    54    32    33 2   
    55    32    34 1   
    56    33    38 1   
    57    34    35 2   
    58    35    36 1   
    59    35    37 1   
    60    36    59 1   
    61    36    60 1   
    62    37    38 1   
    63    37    61 1   
    64    38    39 2   
@<TRIPOS>SUBSTRUCTURE
     1 G4F         1 TEMP              0 ****  ****    0 ROOT
