@<TRIPOS>MOLECULE
G4F
   61    64     1     0     0
SMALL
abcg2


@<TRIPOS>ATOM
      1 O13         -0.3200     2.5440     2.4480 o          1 G4F      -0.849500
      2 P            0.5550     3.1980     1.4240 p5         1 G4F       1.457800
      3 O4           1.0270     4.6060     1.6060 o          1 G4F      -0.849500
      4 O5           1.8960     2.3020     1.1430 os         1 G4F      -0.692800
      5 P1           2.0420     0.6830     1.4100 p5         1 G4F       1.470800
      6 O11          0.9440    -0.0610     0.7280 o          1 G4F      -0.840000
      7 O12          2.3960     0.4330     2.8410 o          1 G4F      -0.840000
      8 O6           3.4240     0.5710     0.4910 os         1 G4F      -0.596400
      9 C8           4.4360    -0.3140     0.8500 c6         1 G4F       0.419300
     10 O8           4.0350    -1.6510     0.7790 os         1 G4F      -0.461000
     11 C10          3.6250    -2.0990    -0.4990 c6         1 G4F       0.153300
     12 C11          3.2850    -3.5700    -0.3850 c3         1 G4F       0.172600
     13 O9           2.1670    -3.7270     0.4520 oh         1 G4F      -0.663000
     14 C12          4.7510    -1.8810    -1.5090 c6         1 G4F       0.124300
     15 F            4.2590    -2.1740    -2.7860 f          1 G4F      -0.297000
     16 C13          5.2430    -0.4430    -1.5020 c6         1 G4F       0.155300
     17 O10          6.3580    -0.2580    -2.3380 oh         1 G4F      -0.660000
     18 C9           5.6220    -0.0460    -0.0830 c6         1 G4F       0.136300
     19 O7           6.7350    -0.8140     0.3000 oh         1 G4F      -0.729000
     20 O3          -0.1230     3.0590    -0.0700 os         1 G4F      -0.581400
     21 C7          -1.5200     3.1480    -0.2150 c3         1 G4F       0.227600
     22 C6          -1.9670     2.3600    -1.4260 c5         1 G4F       0.153300
     23 C5          -3.4930     2.3450    -1.5480 c5         1 G4F       0.078300
     24 O2          -3.9240     3.3560    -2.4200 oh         1 G4F      -0.714000
     25 C4          -3.7790     0.9300    -2.0640 c5         1 G4F       0.088300
     26 O1          -3.5770     0.8510    -3.4490 oh         1 G4F      -0.713000
     27 O14         -1.5670     0.9950    -1.3300 os         1 G4F      -0.369000
     28 C3          -2.6570     0.1390    -1.3960 c5         1 G4F       0.323300
     29 N1          -3.0220    -0.2940    -0.0440 na         1 G4F      -0.206500
     30 C2          -2.3440    -0.0450     1.1270 cc         1 G4F       0.508400
     31 N           -2.8830    -0.6380     2.1500 nd         1 G4F      -0.609000
     32 C14         -4.0430    -1.1350     0.2710 cc         1 G4F       0.070400
     33 C1          -3.9520    -1.3260     1.6370 cd         1 G4F       0.113500
     34 N2          -4.9320    -1.6650    -0.5850 nc         1 G4F      -0.681100
     35 C15         -5.8100    -2.4420    -0.0020 cd         1 G4F       0.681800
     36 N3          -6.7350    -3.0790    -0.7380 nv         1 G4F      -1.062200
     37 N4          -5.8180    -2.6780     1.3420 ns         1 G4F      -0.459400
     38 C           -4.9100    -2.1640     2.2760 c          1 G4F       0.517500
     39 O           -5.0080    -2.4530     3.4580 o          1 G4F      -0.549000
     40 H3           4.7390    -0.1640     1.8930 h2         1 G4F       0.083700
     41 H4           2.7350    -1.5490    -0.8300 h1         1 G4F       0.112700
     42 H5           3.0920    -3.9560    -1.3920 h1         1 G4F       0.003200
     43 H6           4.1640    -4.1070     0.0000 h1         1 G4F       0.003200
     44 H7           1.9320    -4.6590     0.4560 ho         1 G4F       0.473000
     45 H8           5.5790    -2.5720    -1.3200 h1         1 G4F       0.059700
     46 H9           4.4090     0.2000    -1.8150 h1         1 G4F       0.087700
     47 H10          6.0590    -0.2910    -3.2520 ho         1 G4F       0.430000
     48 H11          5.8480     1.0280    -0.0590 h1         1 G4F       0.061700
     49 H12          7.0530    -0.4920     1.1490 ho         1 G4F       0.494000
     50 H13         -2.0380     2.7750     0.6730 h1         1 G4F       0.019200
     51 H14         -1.8370     4.1890    -0.3590 h1         1 G4F       0.019200
     52 H15         -1.5200     2.7810    -2.3330 h1         1 G4F       0.078700
     53 H16         -3.9460     2.4620    -0.5550 h1         1 G4F       0.060700
     54 H17         -4.8500     3.5450    -2.2400 ho         1 G4F       0.492000
     55 H18         -4.7750     0.5760    -1.7780 h1         1 G4F       0.062700
     56 H19         -3.8740     1.6850    -3.8330 ho         1 G4F       0.508000
     57 H20         -2.3900    -0.7520    -1.9710 h2         1 G4F       0.107700
     58 H21         -1.4470     0.5550     1.1580 h5         1 G4F       0.155100
     59 H22         -6.8470    -2.7850    -1.6940 hn         1 G4F       0.481000
     60 H23         -7.5420    -3.4920    -0.3040 hn         1 G4F       0.481000
     61 H24         -6.5340    -3.2870     1.7170 hn         1 G4F       0.297500
@<TRIPOS>BOND
     1     1     2 1   
     2     2     3 1   
     3     2     4 1   
     4     2    20 1   
     5     4     5 1   
     6     5     6 1   
     7     5     7 1   
     8     5     8 1   
     9     8     9 1   
    10     9    10 1   
    11     9    18 1   
    12     9    40 1   
    13    10    11 1   
    14    11    12 1   
    15    11    14 1   
    16    11    41 1   
    17    12    13 1   
    18    12    42 1   
    19    12    43 1   
    20    13    44 1   
    21    14    15 1   
    22    14    16 1   
    23    14    45 1   
    24    16    17 1   
    25    16    18 1   
    26    16    46 1   
    27    17    47 1   
    28    18    19 1   
    29    18    48 1   
    30    19    49 1   
    31    20    21 1   
    32    21    22 1   
    33    21    50 1   
    34    21    51 1   
    35    22    23 1   
    36    22    27 1   
    37    22    52 1   
    38    23    24 1   
    39    23    25 1   
    40    23    53 1   
    41    24    54 1   
    42    25    26 1   
    43    25    28 1   
    44    25    55 1   
    45    26    56 1   
    46    27    28 1   
    47    28    29 1   
    48    28    57 1   
    49    29    30 1   
    50    29    32 1   
    51    30    31 2   
    52    30    58 1   
    53    31    33 1   
    54    32    33 2   
    55    32    34 1   
    56    33    38 1   
    57    34    35 2   
    58    35    36 1   
    59    35    37 1   
    60    36    59 1   
    61    36    60 1   
    62    37    38 1   
    63    37    61 1   
    64    38    39 2   
@<TRIPOS>SUBSTRUCTURE
     1 G4F         1 TEMP              0 ****  ****    0 ROOT
