@<TRIPOS>MOLECULE
G4G
   78    82     1     0     0
SMALL
bcc


@<TRIPOS>ATOM
      1 C1          -5.5850    -2.3810    -0.3800 ca         1 G4G      -0.113250
      2 O2           8.0480    -2.3870     0.9460 o          1 G4G      -0.590600
      3 N2          -8.8780    -1.1950    -1.3220 nt         1 G4G      -0.669500
      4 C2           5.2320    -2.2200     1.3670 ca         1 G4G      -0.113250
      5 O1          -8.1770    -3.3190    -1.0250 o          1 G4G      -0.590600
      6 N1           7.9120    -0.5700    -0.3870 nt         1 G4G      -0.669500
      7 C3          -6.6730    -0.3640     0.3490 ca         1 G4G      -0.113250
      8 C4          -6.7270    -1.5870    -0.3140 ca         1 G4G      -0.104100
      9 C5           5.1480    -1.2610    -0.8370 ca         1 G4G      -0.113250
     10 C6           5.8880    -1.6860     0.2640 ca         1 G4G      -0.104100
     11 C7          -2.6310     1.9920    -0.1310 c3         1 G4G       0.260100
     12 C8           7.3820    -1.5870     0.3070 c          1 G4G       0.677200
     13 C9          -7.9920    -2.1160    -0.9210 c          1 G4G       0.677200
     14 S9           1.3510    -1.7550     0.3930 sy         1 G4G       1.313200
     15 O10         -3.1060     0.8460     2.5040 o          1 G4G      -0.592300
     16 O11          0.7860    -2.5090    -0.7160 o          1 G4G      -0.592300
     17 C12         -1.5660     3.0560    -0.1940 ca         1 G4G      -0.102300
     18 C13         -0.9050     3.4480     0.9680 ca         1 G4G      -0.115000
     19 C14         -1.2200     3.6490    -1.4020 ca         1 G4G      -0.115000
     20 C17         -4.3940    -1.9490     0.1750 ca         1 G4G      -0.042000
     21 C18          3.8480    -2.2670     1.4050 ca         1 G4G      -0.042000
     22 C19         -5.4890     0.0730     0.9220 ca         1 G4G      -0.042000
     23 C20          3.7680    -1.3290    -0.8190 ca         1 G4G      -0.042000
     24 C21         -1.8710    -0.0340    -2.2130 c5         1 G4G       0.146300
     25 N22         -0.7720    -0.6600    -2.9200 n7         1 G4G      -0.785200
     26 C23         -1.3610    -0.1050    -0.7760 c5         1 G4G       0.220500
     27 C24          0.1200     0.2920    -0.9330 c5         1 G4G       0.220500
     28 C25          0.4520    -0.0670    -2.3980 c5         1 G4G       0.146300
     29 C26         -4.3540    -0.7170     0.8170 ca         1 G4G      -0.271000
     30 C27          3.1270    -1.8060     0.3150 ca         1 G4G      -0.271000
     31 N28         -2.0830     0.6790     0.2240 n3         1 G4G      -0.766500
     32 C29          0.0980     4.4040     0.9170 ca         1 G4G      -0.131250
     33 C30         -0.2120     4.6060    -1.4570 ca         1 G4G      -0.131250
     34 C31          0.4520     4.9810    -0.2980 ca         1 G4G      -0.128000
     35 N32          1.0230    -0.1710     0.1170 n3         1 G4G      -0.766500
     36 C33          1.5780     0.7980     1.0630 c3         1 G4G       0.260100
     37 C34          2.9310     1.3340     0.6650 ca         1 G4G      -0.102300
     38 C35          4.0220     1.1780     1.5120 ca         1 G4G      -0.115000
     39 C36          5.2810     1.6340     1.1440 ca         1 G4G      -0.131250
     40 C37          5.4620     2.2590    -0.0810 ca         1 G4G      -0.128000
     41 C38          3.1190     1.9810    -0.5550 ca         1 G4G      -0.115000
     42 C39          4.3740     2.4360    -0.9280 ca         1 G4G      -0.131250
     43 O40          0.9920    -2.1390     1.7480 o          1 G4G      -0.592300
     44 O41         -1.9900    -1.2840     1.7800 o          1 G4G      -0.592300
     45 H1          -5.6230    -3.3450    -0.8690 ha         1 G4G       0.146750
     46 HN21        -9.7360    -1.4880    -1.7620 hn         1 G4G       0.315250
     47 HN2A        -8.6540    -0.2170    -1.3720 hn         1 G4G       0.315250
     48 H2           5.7980    -2.5710     2.2190 ha         1 G4G       0.146750
     49 HN11         8.9080    -0.4210    -0.3790 hn         1 G4G       0.315250
     50 HN12         7.3460     0.1580    -0.7900 hn         1 G4G       0.315250
     51 H3          -7.5560     0.2520     0.4560 ha         1 G4G       0.146750
     52 H5           5.6350    -0.8750    -1.7220 ha         1 G4G       0.146750
     53 H71         -3.3640     2.2820     0.6210 h1         1 G4G       0.065700
     54 H72         -3.1800     1.9410    -1.0730 h1         1 G4G       0.065700
     55 H13         -1.1750     2.9970     1.9160 ha         1 G4G       0.136250
     56 H14         -1.7340     3.3590    -2.3120 ha         1 G4G       0.136250
     57 H17         -3.5190    -2.5810     0.1190 ha         1 G4G       0.156250
     58 H18          3.3490    -2.6410     2.2880 ha         1 G4G       0.156250
     59 H19         -5.4720     1.0140     1.4560 ha         1 G4G       0.156250
     60 H20          3.2120    -0.9740    -1.6750 ha         1 G4G       0.156250
     61 H211        -2.0480     1.0030    -2.5300 h1         1 G4G       0.043200
     62 H212        -2.8040    -0.5860    -2.3470 h1         1 G4G       0.043200
     63 HN22        -0.8510    -0.5290    -3.9190 hn         1 G4G       0.365800
     64 H23         -1.3980    -1.1520    -0.4830 h1         1 G4G       0.086700
     65 H24          0.1730     1.3750    -0.8450 h1         1 G4G       0.086700
     66 H251         1.2850    -0.7600    -2.4880 h1         1 G4G       0.043200
     67 H252         0.7380     0.8490    -2.9300 h1         1 G4G       0.043200
     68 H29          0.6060     4.7000     1.8260 ha         1 G4G       0.133750
     69 H30          0.0530     5.0540    -2.4060 ha         1 G4G       0.133750
     70 H31          1.2400     5.7200    -0.3370 ha         1 G4G       0.130500
     71 H331         0.8570     1.6110     1.1440 h1         1 G4G       0.065700
     72 H332         1.6290     0.3550     2.0590 h1         1 G4G       0.065700
     73 H35          3.8920     0.6800     2.4660 ha         1 G4G       0.136250
     74 H36          6.1190     1.4950     1.8150 ha         1 G4G       0.133750
     75 H37          6.4420     2.6150    -0.3740 ha         1 G4G       0.130500
     76 H38          2.2860     2.1370    -1.2310 ha         1 G4G       0.136250
     77 H39          4.5050     2.9330    -1.8810 ha         1 G4G       0.133750
     78 S8          -2.8100    -0.1290     1.4670 sy         1 G4G       1.313200
@<TRIPOS>BOND
     1     1     8 ar  
     2     1    20 ar  
     3     1    45 1   
     4     2    12 2   
     5     3    13 1   
     6     3    46 1   
     7     3    47 1   
     8     4    10 ar  
     9     4    21 ar  
    10     4    48 1   
    11     5    13 2   
    12     6    12 1   
    13     6    49 1   
    14     6    50 1   
    15     7     8 ar  
    16     7    22 ar  
    17     7    51 1   
    18     8    13 1   
    19     9    10 ar  
    20     9    23 ar  
    21     9    52 1   
    22    10    12 1   
    23    11    17 1   
    24    11    31 1   
    25    11    53 1   
    26    11    54 1   
    27    14    16 2   
    28    14    30 1   
    29    14    35 1   
    30    14    43 2   
    31    15    78 2   
    32    17    18 ar  
    33    17    19 ar  
    34    18    32 ar  
    35    18    55 1   
    36    19    33 ar  
    37    19    56 1   
    38    20    29 ar  
    39    20    57 1   
    40    21    30 ar  
    41    21    58 1   
    42    22    29 ar  
    43    22    59 1   
    44    23    30 ar  
    45    23    60 1   
    46    24    25 1   
    47    24    26 1   
    48    24    61 1   
    49    24    62 1   
    50    25    28 1   
    51    25    63 1   
    52    26    27 1   
    53    26    31 1   
    54    26    64 1   
    55    27    28 1   
    56    27    35 1   
    57    27    65 1   
    58    28    66 1   
    59    28    67 1   
    60    29    78 1   
    61    31    78 1   
    62    32    34 ar  
    63    32    68 1   
    64    33    34 ar  
    65    33    69 1   
    66    34    70 1   
    67    35    36 1   
    68    36    37 1   
    69    36    71 1   
    70    36    72 1   
    71    37    38 ar  
    72    37    41 ar  
    73    38    39 ar  
    74    38    73 1   
    75    39    40 ar  
    76    39    74 1   
    77    40    42 ar  
    78    40    75 1   
    79    41    42 ar  
    80    41    76 1   
    81    42    77 1   
    82    44    78 2   
@<TRIPOS>SUBSTRUCTURE
     1 G4G         1 TEMP              0 ****  ****    0 ROOT
