@<TRIPOS>MOLECULE
G4G
   78    82     1     0     0
SMALL
No Charge or Current Charge


@<TRIPOS>ATOM
      1 C1          -6.2340    -0.9640     0.4930 ca         1 G4G      -0.095250
      2 O2           6.2640    -2.7070     3.7180 o          1 G4G      -0.590600
      3 N2          -7.5970     0.6990     3.5610 nt         1 G4G      -0.602500
      4 C2           4.4920    -2.5030     1.4550 ca         1 G4G      -0.095250
      5 O1          -8.6540    -0.0630     1.7680 o          1 G4G      -0.590600
      6 N1           7.4980    -0.9800     3.0850 nt         1 G4G      -0.602500
      7 C3          -5.0340    -0.1370     2.4410 ca         1 G4G      -0.095250
      8 C4          -6.2620    -0.3360     1.7600 ca         1 G4G      -0.104100
      9 C5           5.8520    -0.6320     0.7070 ca         1 G4G      -0.095250
     10 C6           5.5950    -1.6450     1.6640 ca         1 G4G      -0.104100
     11 C7          -2.6810     0.7360    -1.2780 c3         1 G4G       0.260100
     12 C8           6.4620    -1.8280     2.8950 c          1 G4G       0.610200
     13 C9          -7.5910     0.1010     2.3470 c          1 G4G       0.610200
     14 S9           2.8420    -1.1230    -2.0510 sy         1 G4G       1.171600
     15 O10         -1.2580    -1.8820     0.9300 o          1 G4G      -0.521500
     16 O11          3.6630    -0.5010    -3.0970 o          1 G4G      -0.521500
     17 C12         -2.1070     2.1050    -1.6180 ca         1 G4G      -0.102300
     18 C13         -1.4010     2.8300    -0.6350 ca         1 G4G      -0.097000
     19 C14         -2.2840     2.6700    -2.8980 ca         1 G4G      -0.097000
     20 C17         -5.0210    -1.3790    -0.0830 ca         1 G4G      -0.024000
     21 C18          3.6600    -2.3530     0.3320 ca         1 G4G      -0.024000
     22 C19         -3.8180    -0.5500     1.8660 ca         1 G4G      -0.024000
     23 C20          5.0210    -0.4790    -0.4170 ca         1 G4G      -0.024000
     24 C21         -1.3270    -0.8140    -3.5470 c5         1 G4G       0.146300
     25 N22         -0.1520    -0.7860    -4.4520 n7         1 G4G      -0.840400
     26 C23         -0.6670    -0.7050    -2.1360 c5         1 G4G       0.220500
     27 C24          0.4460     0.3960    -2.3690 c5         1 G4G       0.220500
     28 C25          0.6580     0.3550    -3.9350 c5         1 G4G       0.146300
     29 C26         -3.8040    -1.1700     0.5990 ca         1 G4G      -0.271000
     30 C27          3.9120    -1.3300    -0.6050 ca         1 G4G      -0.271000
     31 N28         -1.6840    -0.3610    -1.0580 n3         1 G4G      -0.766500
     32 C29         -0.8490     4.0860    -0.9380 ca         1 G4G      -0.113250
     33 C30         -1.7340     3.9290    -3.1990 ca         1 G4G      -0.113250
     34 C31         -1.0130     4.6340    -2.2210 ca         1 G4G      -0.110000
     35 N32          1.6850     0.0550    -1.5670 n3         1 G4G      -0.766500
     36 C33          1.5070     0.2440    -0.1070 c3         1 G4G       0.260100
     37 C34          2.5070     1.2070     0.5300 ca         1 G4G      -0.102300
     38 C35          3.0360     0.9320     1.8080 ca         1 G4G      -0.097000
     39 C36          3.9540     1.8140     2.4030 ca         1 G4G      -0.113250
     40 C37          4.3440     2.9830     1.7290 ca         1 G4G      -0.110000
     41 C38          2.8930     2.3900    -0.1350 ca         1 G4G      -0.097000
     42 C39          3.8110     3.2730     0.4610 ca         1 G4G      -0.113250
     43 O40          2.1200    -2.3830    -2.2590 o          1 G4G      -0.521500
     44 O41         -2.5470    -2.7550    -1.1190 o          1 G4G      -0.521500
     45 H1          -7.1600    -1.1340    -0.0540 ha         1 G4G       0.128750
     46 HN21        -8.4780     0.9910     3.9580 hn         1 G4G       0.315250
     47 HN2A        -6.7350     0.8480     4.0620 hn         1 G4G       0.315250
     48 H2           4.2700    -3.2940     2.1690 ha         1 G4G       0.128750
     49 HN11         8.0810    -1.0930     3.9020 hn         1 G4G       0.315250
     50 HN12         7.6830    -0.2430     2.4230 hn         1 G4G       0.315250
     51 H3          -5.0050     0.3390     3.4180 ha         1 G4G       0.128750
     52 H5           6.6880     0.0530     0.8240 ha         1 G4G       0.128750
     53 H71         -3.2550     0.9300    -0.3660 h1         1 G4G       0.065700
     54 H72         -3.4130     0.4400    -2.0420 h1         1 G4G       0.065700
     55 H13         -1.2660     2.4080     0.3590 ha         1 G4G       0.118250
     56 H14         -2.8450     2.1380    -3.6630 ha         1 G4G       0.118250
     57 H17         -5.0330    -1.8590    -1.0620 ha         1 G4G       0.138250
     58 H18          2.8160    -3.0280     0.2010 ha         1 G4G       0.138250
     59 H19         -2.8880    -0.3830     2.4100 ha         1 G4G       0.138250
     60 H20          5.2320     0.3170    -1.1300 ha         1 G4G       0.138250
     61 H211        -1.9880     0.0330    -3.7650 h1         1 G4G       0.043200
     62 H212        -1.9090    -1.7390    -3.6630 h1         1 G4G       0.043200
     63 HN22        -0.4380    -0.6210    -5.4270 hn         1 G4G       0.421000
     64 H23         -0.1820    -1.6620    -1.9120 h1         1 G4G       0.086700
     65 H24          0.1180     1.4010    -2.1070 h1         1 G4G       0.086700
     66 H251         1.7010     0.2990    -4.2620 h1         1 G4G       0.043200
     67 H252         0.2640     1.2900    -4.3580 h1         1 G4G       0.043200
     68 H29         -0.2940     4.6330    -0.1780 ha         1 G4G       0.115750
     69 H30         -1.8680     4.3570    -4.1900 ha         1 G4G       0.115750
     70 H31         -0.5870     5.6080    -2.4550 ha         1 G4G       0.112500
     71 H331         0.5160     0.6690     0.0970 h1         1 G4G       0.065700
     72 H332         1.5170    -0.7210     0.4170 h1         1 G4G       0.065700
     73 H35          2.7430     0.0270     2.3360 ha         1 G4G       0.118250
     74 H36          4.3650     1.5890     3.3850 ha         1 G4G       0.115750
     75 H37          5.0550     3.6660     2.1900 ha         1 G4G       0.112500
     76 H38          2.4840     2.6230    -1.1150 ha         1 G4G       0.118250
     77 H39          4.1070     4.1800    -0.0600 ha         1 G4G       0.115750
     78 S8          -2.2390    -1.6990    -0.1460 sy         1 G4G       1.171600
@<TRIPOS>BOND
     1     1     8 ar  
     2     1    20 ar  
     3     1    45 1   
     4     2    12 2   
     5     3    13 1   
     6     3    46 1   
     7     3    47 1   
     8     4    10 ar  
     9     4    21 ar  
    10     4    48 1   
    11     5    13 2   
    12     6    12 1   
    13     6    49 1   
    14     6    50 1   
    15     7     8 ar  
    16     7    22 ar  
    17     7    51 1   
    18     8    13 1   
    19     9    10 ar  
    20     9    23 ar  
    21     9    52 1   
    22    10    12 1   
    23    11    17 1   
    24    11    31 1   
    25    11    53 1   
    26    11    54 1   
    27    14    16 2   
    28    14    30 1   
    29    14    35 1   
    30    14    43 2   
    31    15    78 2   
    32    17    18 ar  
    33    17    19 ar  
    34    18    32 ar  
    35    18    55 1   
    36    19    33 ar  
    37    19    56 1   
    38    20    29 ar  
    39    20    57 1   
    40    21    30 ar  
    41    21    58 1   
    42    22    29 ar  
    43    22    59 1   
    44    23    30 ar  
    45    23    60 1   
    46    24    25 1   
    47    24    26 1   
    48    24    61 1   
    49    24    62 1   
    50    25    28 1   
    51    25    63 1   
    52    26    27 1   
    53    26    31 1   
    54    26    64 1   
    55    27    28 1   
    56    27    35 1   
    57    27    65 1   
    58    28    66 1   
    59    28    67 1   
    60    29    78 1   
    61    31    78 1   
    62    32    34 ar  
    63    32    68 1   
    64    33    34 ar  
    65    33    69 1   
    66    34    70 1   
    67    35    36 1   
    68    36    37 1   
    69    36    71 1   
    70    36    72 1   
    71    37    38 ar  
    72    37    41 ar  
    73    38    39 ar  
    74    38    73 1   
    75    39    40 ar  
    76    39    74 1   
    77    40    42 ar  
    78    40    75 1   
    79    41    42 ar  
    80    41    76 1   
    81    42    77 1   
    82    44    78 2   
@<TRIPOS>SUBSTRUCTURE
     1 G4G         1 TEMP              0 ****  ****    0 ROOT
