@<TRIPOS>MOLECULE
G4H
   82    88     1     0     0
SMALL
bcc


@<TRIPOS>ATOM
      1 CAR          3.2670    -1.3350     1.4590 ca         1 G4H      -0.112000
      2 CAS          2.2850    -2.1710     1.9640 ca         1 G4H      -0.130000
      3 CAT          2.4770    -3.5480     1.9800 ca         1 G4H      -0.123000
      4 CAU          3.6630    -4.0800     1.4950 ca         1 G4H      -0.130000
      5 CAV          4.6490    -3.2410     0.9920 ca         1 G4H      -0.112000
      6 CBJ          4.4600    -1.8610     0.9620 cp         1 G4H      -0.036000
      7 CBM          5.5260    -0.9750     0.4480 cp         1 G4H      -0.165300
      8 CBN          6.8110    -1.0940     0.9370 ca         1 G4H      -0.024000
      9 CBS          7.8090    -0.2190     0.5160 ca         1 G4H      -0.288900
     10 CBQ          9.1690    -0.3380     1.0390 c          1 G4H       0.720100
     11 OAN          9.5310    -1.1930     1.8350 o          1 G4H      -0.625500
     12 NBT         10.0360     0.6100     0.5620 ns         1 G4H      -0.452100
     13 CBR          9.7090     1.5970    -0.3210 cc         1 G4H       0.012600
     14 CBO          8.4630     1.7230    -0.8170 cd         1 G4H      -0.318800
     15 CBP          7.4640     0.7890    -0.3980 ca         1 G4H       0.525100
     16 NBK          6.2250     0.8930    -0.8940 nb         1 G4H      -0.681000
     17 CBL          5.2920     0.0410    -0.5120 cq         1 G4H       0.524800
     18 CBI          3.9720     0.2060    -1.1600 cq         1 G4H      -0.156500
     19 CBH          3.3820     1.4680    -1.2320 ca         1 G4H      -0.098000
     20 CBG          2.1340     1.6270    -1.8100 ca         1 G4H      -0.123000
     21 CBD          3.3070    -0.8790    -1.7210 ca         1 G4H      -0.098000
     22 CBE          2.0680    -0.7100    -2.3200 ca         1 G4H      -0.123000
     23 CBF          1.4590     0.5390    -2.3590 ca         1 G4H      -0.075300
     24 CBC          0.0940     0.7150    -2.9660 c3         1 G4H       0.211100
     25 NBB         -0.8740     1.2110    -2.0040 n3         1 G4H      -0.712600
     26 CBA         -2.1240     1.5410    -2.6650 c6         1 G4H       0.166300
     27 CAZ         -3.1260     2.1510    -1.6970 c6         1 G4H      -0.091900
     28 CAW         -1.0820     0.2740    -0.9130 c6         1 G4H       0.166300
     29 CAX         -2.0370     0.8360     0.1290 c6         1 G4H      -0.091900
     30 CAY         -3.3610     1.1920    -0.5360 c6         1 G4H       0.136700
     31 NAQ         -4.3700     1.6670     0.3970 n          1 G4H      -0.356000
     32 CAL         -5.6030     1.0790     0.5990 ca         1 G4H       0.034600
     33 CAH         -6.1680    -0.0520     0.0400 ca         1 G4H      -0.156000
     34 CAI         -4.2620     2.7980     1.1790 c          1 G4H       0.803500
     35 OAD         -3.3140     3.5620     1.2400 o          1 G4H      -0.639500
     36 NAJ         -5.4400     2.8990     1.8790 n          1 G4H      -0.359000
     37 CAO         -5.7490     3.9360     2.8290 c3         1 G4H       0.106300
     38 CAK         -6.2760     1.8580     1.5410 ca         1 G4H      -0.024400
     39 CAE         -7.5480     1.5210     1.9540 ca         1 G4H      -0.097000
     40 CAF         -8.1300     0.3880     1.4000 ca         1 G4H      -0.190000
     41 CAG         -7.4600    -0.3960     0.4540 ca         1 G4H       0.075600
     42 NAC         -8.1540    -1.5100    -0.0350 ns         1 G4H      -0.475100
     43 CAB         -7.7720    -2.4400    -0.9470 c          1 G4H       0.672100
     44 OAP         -6.6780    -2.4570    -1.4830 o          1 G4H      -0.582100
     45 CAA         -8.8520    -3.4550    -1.2630 c3         1 G4H      -0.158400
     46 CAM         -8.3220    -4.7040    -1.9450 c3         1 G4H      -0.077100
     47 H1           3.1060    -0.2640     1.4570 ha         1 G4H       0.136000
     48 H2           1.3660    -1.7470     2.3480 ha         1 G4H       0.132500
     49 H3           1.7060    -4.2000     2.3700 ha         1 G4H       0.131000
     50 H4           3.8230    -5.1500     1.5020 ha         1 G4H       0.132500
     51 H5           5.5650    -3.6660     0.6000 ha         1 G4H       0.136000
     52 H6           7.0400    -1.8530     1.6750 ha         1 G4H       0.162000
     53 H7          10.5170     2.2610    -0.5910 h4         1 G4H       0.151000
     54 H8           8.2210     2.5100    -1.5150 ha         1 G4H       0.166000
     55 H10          3.8940     2.3240    -0.8120 ha         1 G4H       0.140500
     56 H11          1.6750     2.6080    -1.8330 ha         1 G4H       0.138000
     57 H12          3.7520    -1.8660    -1.6930 ha         1 G4H       0.140500
     58 H13          1.5640    -1.5660    -2.7500 ha         1 G4H       0.138000
     59 H14          0.1510     1.4380    -3.7840 h1         1 G4H       0.038700
     60 H15         -0.2290    -0.2390    -3.4160 h1         1 G4H       0.038700
     61 H17         -1.9180     2.2510    -3.4690 h1         1 G4H       0.035200
     62 H18         -2.5760     0.6510    -3.1390 h1         1 G4H       0.035200
     63 H19         -2.7490     3.1070    -1.3280 hc         1 G4H       0.065700
     64 H20         -4.0640     2.3440    -2.2220 hc         1 G4H       0.065700
     65 H21         -1.4690    -0.6930    -1.2830 h1         1 G4H       0.035200
     66 H22         -0.1220     0.0600    -0.4390 h1         1 G4H       0.035200
     67 H23         -2.1960     0.0920     0.9120 hc         1 G4H       0.065700
     68 H24         -1.5940     1.7190     0.5930 hc         1 G4H       0.065700
     69 H25         -3.7680     0.2670    -0.9520 h1         1 G4H       0.058700
     70 H26         -5.6370    -0.6450    -0.6850 ha         1 G4H       0.176000
     71 H27         -4.9490     4.6690     2.8320 h1         1 G4H       0.049700
     72 H28         -6.6790     4.4360     2.5570 h1         1 G4H       0.049700
     73 H29         -5.8520     3.5250     3.8330 h1         1 G4H       0.049700
     74 H30         -8.0880     2.1120     2.6830 ha         1 G4H       0.141000
     75 H31         -9.1300     0.1100     1.7100 ha         1 G4H       0.129000
     76 H32         -9.0850    -1.6220     0.3380 hn         1 G4H       0.314500
     77 H33         -9.3860    -3.7190    -0.3470 hc         1 G4H       0.056700
     78 H34         -9.5900    -2.9600    -1.9030 hc         1 G4H       0.056700
     79 H35         -7.8280    -4.4710    -2.8870 hc         1 G4H       0.045033
     80 H36         -7.6100    -5.2330    -1.3120 hc         1 G4H       0.045033
     81 H37         -9.1440    -5.3850    -2.1610 hc         1 G4H       0.045033
     82 H16         10.9880     0.5660     0.8980 hn         1 G4H       0.328500
@<TRIPOS>BOND
     1     1     2 ar  
     2     1     6 ar  
     3     1    47 1   
     4     2     3 ar  
     5     2    48 1   
     6     3     4 ar  
     7     3    49 1   
     8     4     5 ar  
     9     4    50 1   
    10     5     6 ar  
    11     5    51 1   
    12     6     7 1   
    13     7     8 ar  
    14     7    17 2   
    15     8     9 ar  
    16     8    52 1   
    17     9    10 1   
    18     9    15 ar  
    19    10    11 2   
    20    10    12 1   
    21    12    13 1   
    22    12    82 1   
    23    13    14 2   
    24    13    53 1   
    25    14    15 1   
    26    14    54 1   
    27    15    16 ar  
    28    16    17 1   
    29    17    18 1   
    30    18    19 1   
    31    18    21 2   
    32    19    20 ar  
    33    19    55 1   
    34    20    23 ar  
    35    20    56 1   
    36    21    22 ar  
    37    21    57 1   
    38    22    23 ar  
    39    22    58 1   
    40    23    24 1   
    41    24    25 1   
    42    24    59 1   
    43    24    60 1   
    44    25    26 1   
    45    25    28 1   
    46    26    27 1   
    47    26    61 1   
    48    26    62 1   
    49    27    30 1   
    50    27    63 1   
    51    27    64 1   
    52    28    29 1   
    53    28    65 1   
    54    28    66 1   
    55    29    30 1   
    56    29    67 1   
    57    29    68 1   
    58    30    31 1   
    59    30    69 1   
    60    31    32 1   
    61    31    34 1   
    62    32    33 ar  
    63    32    38 ar  
    64    33    41 ar  
    65    33    70 1   
    66    34    35 2   
    67    34    36 1   
    68    36    37 1   
    69    36    38 1   
    70    37    71 1   
    71    37    72 1   
    72    37    73 1   
    73    38    39 ar  
    74    39    40 ar  
    75    39    74 1   
    76    40    41 ar  
    77    40    75 1   
    78    41    42 1   
    79    42    43 1   
    80    42    76 1   
    81    43    44 2   
    82    43    45 1   
    83    45    46 1   
    84    45    77 1   
    85    45    78 1   
    86    46    79 1   
    87    46    80 1   
    88    46    81 1   
@<TRIPOS>SUBSTRUCTURE
     1 G4H         1 TEMP              0 ****  ****    0 ROOT
