@<TRIPOS>MOLECULE
G4H
   82    88     1     0     0
SMALL
No Charge or Current Charge


@<TRIPOS>ATOM
      1 CAR          3.2610    -1.8440     1.2690 ca         1 G4H      -0.094000
      2 CAS          2.2570    -2.7610     1.6240 ca         1 G4H      -0.112000
      3 CAT          2.4610    -4.1360     1.4330 ca         1 G4H      -0.105000
      4 CAU          3.6700    -4.5940     0.8860 ca         1 G4H      -0.112000
      5 CAV          4.6740    -3.6770     0.5300 ca         1 G4H      -0.094000
      6 CBJ          4.4880    -2.2830     0.7110 cp         1 G4H      -0.036000
      7 CBM          5.5540    -1.3030     0.3290 cp         1 G4H      -0.100000
      8 CBN          6.8820    -1.6030     0.6980 ca         1 G4H      -0.006000
      9 CBS          7.8630    -0.6220     0.4900 ca         1 G4H      -0.223600
     10 CBQ          9.2960    -0.8410     0.8580 c          1 G4H       0.577600
     11 OAN          9.7040    -1.8910     1.3290 o          1 G4H      -0.550000
     12 NBT         10.1510     0.2160     0.6340 ns         1 G4H      -0.385100
     13 CBR          9.7990     1.4530     0.1120 cc         1 G4H      -0.037400
     14 CBO          8.4820     1.6570    -0.2220 cd         1 G4H      -0.368800
     15 CBP          7.4820     0.6160    -0.0390 ca         1 G4H       0.459800
     16 NBK          6.2260     0.9340    -0.3990 nb         1 G4H      -0.681000
     17 CBL          5.2500     0.0060    -0.2980 cq         1 G4H       0.459500
     18 CBI          3.9580     0.3580    -0.9980 cq         1 G4H      -0.156500
     19 CBH          3.4730     1.6870    -0.9980 ca         1 G4H      -0.080000
     20 CBG          2.2640     2.0080    -1.6370 ca         1 G4H      -0.105000
     21 CBD          3.2100    -0.6300    -1.6770 ca         1 G4H      -0.080000
     22 CBE          2.0020    -0.3040    -2.3150 ca         1 G4H      -0.105000
     23 CBF          1.5180     1.0160    -2.2960 ca         1 G4H      -0.075300
     24 CBC          0.1970     1.3700    -2.9760 c3         1 G4H       0.211100
     25 NBB         -0.8860     1.7100    -2.0210 n3         1 G4H      -0.712600
     26 CBA         -2.0970     2.2270    -2.7150 c6         1 G4H       0.166300
     27 CAZ         -3.1620     2.7120    -1.7060 c6         1 G4H      -0.091900
     28 CAW         -1.2160     0.5880    -1.0950 c6         1 G4H       0.166300
     29 CAX         -2.2620     1.0100    -0.0380 c6         1 G4H      -0.091900
     30 CAY         -3.5240     1.5760    -0.7210 c6         1 G4H       0.136700
     31 NAQ         -4.5750     1.9400     0.2590 n          1 G4H      -0.289000
     32 CAL         -5.8630     1.3240     0.2890 ca         1 G4H       0.034600
     33 CAH         -6.2280     0.0170    -0.0680 ca         1 G4H      -0.138000
     34 CAI         -4.5780     3.0900     1.0690 c          1 G4H       0.594000
     35 OAD         -3.6670     3.8880     1.2440 o          1 G4H      -0.564000
     36 NAJ         -5.8640     3.1540     1.6180 n          1 G4H      -0.292000
     37 CAO         -6.3830     4.3220     2.3500 c3         1 G4H       0.106300
     38 CAK         -6.6630     2.0840     1.1330 ca         1 G4H      -0.024400
     39 CAE         -7.8630     1.5800     1.6470 ca         1 G4H      -0.079000
     40 CAF         -8.2980     0.3150     1.2010 ca         1 G4H      -0.172000
     41 CAG         -7.4930    -0.4720     0.3430 ca         1 G4H      -0.017000
     42 NAC         -7.9740    -1.7640    -0.0040 ns         1 G4H      -0.149000
     43 CAB         -7.5260    -2.7070    -0.9200 c          1 G4H       0.605100
     44 OAP         -6.5810    -2.5350    -1.6820 o          1 G4H      -0.582100
     45 CAA         -8.3510    -4.0020    -0.9490 c3         1 G4H      -0.158400
     46 CAM         -7.5840    -5.1840    -0.3150 c3         1 G4H      -0.077100
     47 H1           3.0880    -0.7830     1.4320 ha         1 G4H       0.118000
     48 H2           1.3210    -2.4040     2.0500 ha         1 G4H       0.114500
     49 H3           1.6830    -4.8460     1.7080 ha         1 G4H       0.113000
     50 H4           3.8300    -5.6600     0.7360 ha         1 G4H       0.114500
     51 H5           5.5990    -4.0500     0.0960 ha         1 G4H       0.118000
     52 H6           7.1340    -2.5500     1.1700 ha         1 G4H       0.144000
     53 H7          10.6220     2.1590     0.0160 h4         1 G4H       0.201000
     54 H8           8.1740     2.6140    -0.6320 ha         1 G4H       0.216000
     55 H10          4.0210     2.4770    -0.4890 ha         1 G4H       0.122500
     56 H11          1.8980     3.0320    -1.6130 ha         1 G4H       0.120000
     57 H12          3.5590    -1.6590    -1.7230 ha         1 G4H       0.122500
     58 H13          1.4400    -1.0830    -2.8250 ha         1 G4H       0.120000
     59 H14          0.3830     2.2230    -3.6420 h1         1 G4H       0.038700
     60 H15         -0.1160     0.5330    -3.6150 h1         1 G4H       0.038700
     61 H17         -1.8300     3.0670    -3.3730 h1         1 G4H       0.035200
     62 H18         -2.5340     1.4440    -3.3520 h1         1 G4H       0.035200
     63 H19         -2.7690     3.5840    -1.1690 hc         1 G4H       0.065700
     64 H20         -4.0600     3.0460    -2.2440 hc         1 G4H       0.065700
     65 H21         -1.6050    -0.2710    -1.6630 h1         1 G4H       0.035200
     66 H22         -0.3160     0.2430    -0.5660 h1         1 G4H       0.035200
     67 H23         -2.5260     0.1470     0.5870 hc         1 G4H       0.065700
     68 H24         -1.8230     1.7640     0.6280 hc         1 G4H       0.065700
     69 H25         -3.9300     0.7650    -1.3410 h1         1 G4H       0.058700
     70 H26         -5.5350    -0.6010    -0.6280 ha         1 G4H       0.158000
     71 H27         -5.8680     5.2330     2.0200 h1         1 G4H       0.049700
     72 H28         -7.4580     4.4350     2.1610 h1         1 G4H       0.049700
     73 H29         -6.2170     4.1830     3.4260 h1         1 G4H       0.049700
     74 H30         -8.4390     2.1410     2.3800 ha         1 G4H       0.123000
     75 H31         -9.2450    -0.0770     1.5650 ha         1 G4H       0.111000
     76 H32         -8.7910    -2.0500     0.5190 hn         1 G4H       0.148000
     77 H33         -9.2880    -3.8660    -0.3960 hc         1 G4H       0.056700
     78 H34         -8.5720    -4.2560    -1.9920 hc         1 G4H       0.056700
     79 H35         -6.6490    -5.3760    -0.8550 hc         1 G4H       0.045033
     80 H36         -7.3410    -4.9720     0.7330 hc         1 G4H       0.045033
     81 H37         -8.1910    -6.0970    -0.3480 hc         1 G4H       0.045033
     82 H16         11.1170     0.0390     0.8900 hn         1 G4H       0.328500
@<TRIPOS>BOND
     1     1     2 ar  
     2     1     6 ar  
     3     1    47 1   
     4     2     3 ar  
     5     2    48 1   
     6     3     4 ar  
     7     3    49 1   
     8     4     5 ar  
     9     4    50 1   
    10     5     6 ar  
    11     5    51 1   
    12     6     7 1   
    13     7     8 ar  
    14     7    17 2   
    15     8     9 ar  
    16     8    52 1   
    17     9    10 1   
    18     9    15 ar  
    19    10    11 2   
    20    10    12 1   
    21    12    13 1   
    22    12    82 1   
    23    13    14 2   
    24    13    53 1   
    25    14    15 1   
    26    14    54 1   
    27    15    16 ar  
    28    16    17 1   
    29    17    18 1   
    30    18    19 1   
    31    18    21 2   
    32    19    20 ar  
    33    19    55 1   
    34    20    23 ar  
    35    20    56 1   
    36    21    22 ar  
    37    21    57 1   
    38    22    23 ar  
    39    22    58 1   
    40    23    24 1   
    41    24    25 1   
    42    24    59 1   
    43    24    60 1   
    44    25    26 1   
    45    25    28 1   
    46    26    27 1   
    47    26    61 1   
    48    26    62 1   
    49    27    30 1   
    50    27    63 1   
    51    27    64 1   
    52    28    29 1   
    53    28    65 1   
    54    28    66 1   
    55    29    30 1   
    56    29    67 1   
    57    29    68 1   
    58    30    31 1   
    59    30    69 1   
    60    31    32 1   
    61    31    34 1   
    62    32    33 ar  
    63    32    38 ar  
    64    33    41 ar  
    65    33    70 1   
    66    34    35 2   
    67    34    36 1   
    68    36    37 1   
    69    36    38 1   
    70    37    71 1   
    71    37    72 1   
    72    37    73 1   
    73    38    39 ar  
    74    39    40 ar  
    75    39    74 1   
    76    40    41 ar  
    77    40    75 1   
    78    41    42 1   
    79    42    43 1   
    80    42    76 1   
    81    43    44 2   
    82    43    45 1   
    83    45    46 1   
    84    45    77 1   
    85    45    78 1   
    86    46    79 1   
    87    46    80 1   
    88    46    81 1   
@<TRIPOS>SUBSTRUCTURE
     1 G4H         1 TEMP              0 ****  ****    0 ROOT
