@<TRIPOS>MOLECULE
G4I
   64    67     1     0     0
SMALL
abcg2


@<TRIPOS>ATOM
      1 N12        135.5460   133.8920   126.4450 ne         1 G4I      -0.609100
      2 C13        134.4250   130.2300   131.8930 c6         1 G4I       0.176300
      3 C15        132.9650   129.8690   132.1690 c6         1 G4I      -0.120900
      4 C17        132.1570   131.1110   132.5230 c6         1 G4I       0.216800
      5 C20        136.4780   127.1990   131.7170 ca         1 G4I      -0.075300
      6 C21        130.5740   133.1480   128.4470 cc         1 G4I       0.869200
      7 C22        137.5360   127.6980   130.9620 ca         1 G4I      -0.087000
      8 C24        129.2900   131.7620   129.7030 cd         1 G4I       0.711200
      9 C26        137.3760   124.9670   131.4480 ca         1 G4I      -0.101000
     10 C28        138.4130   125.4900   130.6980 ca         1 G4I       0.096100
     11 C14        134.5290   131.3600   130.8780 c6         1 G4I      -0.120900
     12 C16        133.6610   132.5410   131.2900 c6         1 G4I       0.216800
     13 C18        131.3270   132.2200   130.5380 cc         1 G4I       0.897100
     14 C19        135.4320   128.1140   132.2930 c3         1 G4I       0.208900
     15 C23        136.4110   125.8300   131.9490 ca         1 G4I      -0.087000
     16 C25        138.5050   126.8490   130.4500 ca         1 G4I      -0.101000
     17 C27        131.9870   134.5260   127.2220 ca         1 G4I       0.161400
     18 C29        133.1740   133.8310   126.9330 ca         1 G4I      -0.125300
     19 C30        134.3580   134.5630   126.7590 ca         1 G4I       0.165400
     20 C31        131.9930   135.9220   127.2890 ca         1 G4I      -0.127000
     21 C33        134.3510   135.9540   126.8300 ca         1 G4I      -0.132000
     22 C34        133.1670   136.6270   127.0890 ca         1 G4I      -0.092000
     23 C35        140.4360   124.3110   130.8040 c3         1 G4I       0.515000
     24 C36        136.3280   133.5200   127.3650 c2         1 G4I       0.624600
     25 C37        137.5970   132.7880   127.0720 c3         1 G4I      -0.169400
     26 F01        141.1550   125.3790   131.1560 f          1 G4I      -0.109333
     27 F02        140.1620   123.6410   131.9250 f          1 G4I      -0.109333
     28 F03        141.1880   123.5390   130.0340 f          1 G4I      -0.109333
     29 N07        132.2810   132.1070   131.4640 nh         1 G4I      -0.740600
     30 N08        131.5210   133.0200   129.4630 na         1 G4I      -0.923400
     31 N09        130.1850   131.5690   130.6770 nd         1 G4I      -0.857000
     32 N10        130.7710   133.8620   127.4050 nf         1 G4I      -0.636100
     33 N11        129.4000   132.4790   128.6230 nc         1 G4I      -0.735000
     34 O04        135.1650   129.1450   131.3780 os         1 G4I      -0.457000
     35 O05        139.3380   124.6310   130.1110 os         1 G4I      -0.403100
     36 O06        136.0500   133.7610   128.6540 oh         1 G4I      -0.671600
     37 H2         134.8780   130.5710   132.8390 h1         1 G4I       0.030700
     38 H3         132.5310   129.3900   131.2860 hc         1 G4I       0.064700
     39 H4         132.8870   129.1600   132.9960 hc         1 G4I       0.064700
     40 H5         132.5320   131.5650   133.4430 h1         1 G4I       0.070700
     41 H6         131.1110   130.8680   132.6770 h1         1 G4I       0.070700
     42 H7         137.6100   128.7590   130.7600 ha         1 G4I       0.124000
     43 H8         128.3490   131.2370   129.8370 h5         1 G4I       0.057800
     44 H9         137.2980   123.9010   131.6190 ha         1 G4I       0.135500
     45 H10        134.2150   131.0050   129.8910 hc         1 G4I       0.064700
     46 H11        135.5670   131.6890   130.7940 hc         1 G4I       0.064700
     47 H12        133.9940   132.9480   132.2470 h1         1 G4I       0.070700
     48 H13        133.7570   133.3570   130.5770 h1         1 G4I       0.070700
     49 H14        135.7920   128.5290   133.2460 h1         1 G4I       0.035200
     50 H15        134.5320   127.5320   132.5280 h1         1 G4I       0.035200
     51 H16        135.5870   125.4210   132.5220 ha         1 G4I       0.124000
     52 H17        139.3120   127.2430   129.8460 ha         1 G4I       0.135500
     53 H18        131.0660   136.4410   127.4970 ha         1 G4I       0.127000
     54 H19        133.5030   131.8410   127.7250 hc         1 G4I       0.045367
     55 H20        132.2160   131.9420   126.5340 hc         1 G4I       0.045367
     56 H21        133.9030   132.0250   126.0300 hc         1 G4I       0.045367
     57 H22        135.2720   136.5000   126.6740 ha         1 G4I       0.118000
     58 H23        133.1630   137.7080   127.1450 ha         1 G4I       0.114000
     59 H24        138.4580   133.3360   127.4600 hc         1 G4I       0.064700
     60 H25        137.5910   131.8080   127.5520 hc         1 G4I       0.064700
     61 H26        137.7210   132.6550   126.0010 hc         1 G4I       0.064700
     62 H1         132.3780   133.5450   129.3600 hn         1 G4I       0.514000
     63 H27        136.7380   133.4110   129.2330 ho         1 G4I       0.466000
     64 C32        133.1960   132.3350   126.7990 c3         1 G4I      -0.048800
@<TRIPOS>BOND
     1     1    19 1   
     2     1    24 2   
     3     2     3 1   
     4     2    11 1   
     5     2    34 1   
     6     2    37 1   
     7     3     4 1   
     8     3    38 1   
     9     3    39 1   
    10     4    29 1   
    11     4    40 1   
    12     4    41 1   
    13     5     7 ar  
    14     5    14 1   
    15     5    15 ar  
    16     6    30 1   
    17     6    32 2   
    18     6    33 1   
    19     7    16 ar  
    20     7    42 1   
    21     8    31 1   
    22     8    33 2   
    23     8    43 1   
    24     9    10 ar  
    25     9    15 ar  
    26     9    44 1   
    27    10    16 ar  
    28    10    35 1   
    29    11    12 1   
    30    11    45 1   
    31    11    46 1   
    32    12    29 1   
    33    12    47 1   
    34    12    48 1   
    35    13    29 1   
    36    13    30 1   
    37    13    31 2   
    38    14    34 1   
    39    14    49 1   
    40    14    50 1   
    41    15    51 1   
    42    16    52 1   
    43    17    18 ar  
    44    17    20 ar  
    45    17    32 1   
    46    18    19 ar  
    47    18    64 1   
    48    19    21 ar  
    49    20    22 ar  
    50    20    53 1   
    51    21    22 ar  
    52    21    57 1   
    53    22    58 1   
    54    23    26 1   
    55    23    27 1   
    56    23    28 1   
    57    23    35 1   
    58    24    25 1   
    59    24    36 1   
    60    25    59 1   
    61    25    60 1   
    62    25    61 1   
    63    30    62 1   
    64    36    63 1   
    65    54    64 1   
    66    55    64 1   
    67    56    64 1   
@<TRIPOS>SUBSTRUCTURE
     1 G4I         1 TEMP              0 ****  ****    0 ROOT
