@<TRIPOS>MOLECULE
G4I
   64    67     1     0     0
SMALL
No Charge or Current Charge


@<TRIPOS>ATOM
      1 N12        135.4520   134.4740   126.2610 ne         1 G4I      -0.609100
      2 C13        134.6580   130.2700   131.9030 c6         1 G4I       0.176300
      3 C15        133.2060   129.9790   132.3660 c6         1 G4I      -0.120900
      4 C17        132.4200   131.2930   132.5770 c6         1 G4I       0.216800
      5 C20        136.5110   127.0120   132.1300 ca         1 G4I      -0.075300
      6 C21        130.5910   132.9190   128.5610 cc         1 G4I       0.869200
      7 C22        137.9150   127.1030   132.1910 ca         1 G4I      -0.087000
      8 C24        129.4530   131.3300   129.5900 cd         1 G4I       0.711200
      9 C26        136.7220   124.8240   131.0740 ca         1 G4I      -0.101000
     10 C28        138.1230   124.9090   131.1350 ca         1 G4I       0.096100
     11 C14        134.6470   131.1850   130.6590 c6         1 G4I      -0.120900
     12 C16        133.8340   132.4720   130.9170 c6         1 G4I       0.216800
     13 C18        131.4170   132.1190   130.4500 cc         1 G4I       0.897100
     14 C19        135.6420   128.1420   132.6640 c3         1 G4I       0.208900
     15 C23        135.9190   125.8670   131.5660 ca         1 G4I      -0.087000
     16 C25        138.7200   126.0610   131.6980 ca         1 G4I      -0.101000
     17 C27        131.8120   134.4640   127.1520 ca         1 G4I       0.161400
     18 C29        133.0980   133.9680   126.8150 ca         1 G4I      -0.125300
     19 C30        134.1420   134.8960   126.5680 ca         1 G4I       0.165400
     20 C31        131.5740   135.8470   127.2060 ca         1 G4I      -0.127000
     21 C33        133.8860   136.2780   126.6190 ca         1 G4I      -0.132000
     22 C34        132.6050   136.7560   126.9330 ca         1 G4I      -0.092000
     23 C35        140.2870   123.7760   130.6160 c3         1 G4I       0.515000
     24 C36        136.3170   134.1450   127.1680 c2         1 G4I       0.624600
     25 C37        137.7100   133.6940   126.8190 c3         1 G4I      -0.169400
     26 F01        140.8360   124.7770   129.8910 f          1 G4I      -0.109333
     27 F02        140.8100   123.8260   131.8630 f          1 G4I      -0.109333
     28 F03        140.7040   122.6160   130.0620 f          1 G4I      -0.109333
     29 N07        132.4490   132.1180   131.3370 nh         1 G4I      -0.740600
     30 N08        131.3230   133.1480   129.6270 na         1 G4I      -0.923400
     31 N09        130.4040   131.3090   130.5880 nd         1 G4I      -0.857000
     32 N10        130.7480   133.5910   127.4820 nf         1 G4I      -0.636100
     33 N11        129.6070   132.0340   128.4960 nc         1 G4I      -0.735000
     34 O04        135.3740   129.0590   131.5870 os         1 G4I      -0.457000
     35 O05        138.8460   123.8420   130.6290 os         1 G4I      -0.403100
     36 O06        136.0260   134.2040   128.4710 oh         1 G4I      -0.671600
     37 H2         135.1950   130.7880   132.7120 h1         1 G4I       0.030700
     38 H3         132.6920   129.3590   131.6200 hc         1 G4I       0.064700
     39 H4         133.2060   129.4150   133.3070 hc         1 G4I       0.064700
     40 H5         132.8770   131.8550   133.4050 h1         1 G4I       0.070700
     41 H6         131.3920   131.0630   132.8940 h1         1 G4I       0.070700
     42 H7         138.3830   127.9860   132.6200 ha         1 G4I       0.124000
     43 H8         128.6150   130.6480   129.6820 h5         1 G4I       0.057800
     44 H9         136.2560   123.9420   130.6400 ha         1 G4I       0.135500
     45 H10        134.2170   130.6450   129.8050 hc         1 G4I       0.064700
     46 H11        135.6760   131.4490   130.3810 hc         1 G4I       0.064700
     47 H12        134.3260   133.0620   131.7050 h1         1 G4I       0.070700
     48 H13        133.8480   133.0890   130.0070 h1         1 G4I       0.070700
     49 H14        136.1660   128.6510   133.4840 h1         1 G4I       0.035200
     50 H15        134.7110   127.7220   133.0660 h1         1 G4I       0.035200
     51 H16        134.8350   125.7850   131.5080 ha         1 G4I       0.124000
     52 H17        139.7980   126.1700   131.7640 ha         1 G4I       0.135500
     53 H18        130.5850   136.2160   127.4660 ha         1 G4I       0.127000
     54 H19        133.6840   132.0660   127.7110 hc         1 G4I       0.045367
     55 H20        132.4710   131.8950   126.4330 hc         1 G4I       0.045367
     56 H21        134.1390   132.2080   126.0070 hc         1 G4I       0.045367
     57 H22        134.6880   136.9840   126.4190 ha         1 G4I       0.118000
     58 H23        132.4160   137.8270   126.9760 ha         1 G4I       0.114000
     59 H24        138.4590   134.3880   127.2170 hc         1 G4I       0.064700
     60 H25        137.9140   132.6970   127.2260 hc         1 G4I       0.064700
     61 H26        137.8490   133.6430   125.7330 hc         1 G4I       0.064700
     62 H1         131.9840   133.8920   129.6500 hn         1 G4I       0.514000
     63 H27        136.8570   133.9670   128.9260 ho         1 G4I       0.466000
     64 C32        133.3610   132.4560   126.7390 c3         1 G4I      -0.048800
@<TRIPOS>BOND
     1     1    19 1   
     2     1    24 2   
     3     2     3 1   
     4     2    11 1   
     5     2    34 1   
     6     2    37 1   
     7     3     4 1   
     8     3    38 1   
     9     3    39 1   
    10     4    29 1   
    11     4    40 1   
    12     4    41 1   
    13     5     7 ar  
    14     5    14 1   
    15     5    15 ar  
    16     6    30 1   
    17     6    32 2   
    18     6    33 1   
    19     7    16 ar  
    20     7    42 1   
    21     8    31 1   
    22     8    33 2   
    23     8    43 1   
    24     9    10 ar  
    25     9    15 ar  
    26     9    44 1   
    27    10    16 ar  
    28    10    35 1   
    29    11    12 1   
    30    11    45 1   
    31    11    46 1   
    32    12    29 1   
    33    12    47 1   
    34    12    48 1   
    35    13    29 1   
    36    13    30 1   
    37    13    31 2   
    38    14    34 1   
    39    14    49 1   
    40    14    50 1   
    41    15    51 1   
    42    16    52 1   
    43    17    18 ar  
    44    17    20 ar  
    45    17    32 1   
    46    18    19 ar  
    47    18    64 1   
    48    19    21 ar  
    49    20    22 ar  
    50    20    53 1   
    51    21    22 ar  
    52    21    57 1   
    53    22    58 1   
    54    23    26 1   
    55    23    27 1   
    56    23    28 1   
    57    23    35 1   
    58    24    25 1   
    59    24    36 1   
    60    25    59 1   
    61    25    60 1   
    62    25    61 1   
    63    30    62 1   
    64    36    63 1   
    65    54    64 1   
    66    55    64 1   
    67    56    64 1   
@<TRIPOS>SUBSTRUCTURE
     1 G4I         1 TEMP              0 ****  ****    0 ROOT
