@<TRIPOS>MOLECULE
G4J
   49    53     1     0     0
SMALL
bcc


@<TRIPOS>ATOM
      1 N3          -3.8740    -0.3080    -0.4080 nu         1 G4J      -0.709300
      2 C4          -6.1090     0.1200     0.7420 cc         1 G4J       0.313200
      3 N2          -7.3660    -0.2180     0.4910 nd         1 G4J      -0.520800
      4 C7          -1.1050     1.4210     1.9390 ca         1 G4J      -0.491600
      5 C6          -2.4420     1.4470     2.2490 ca         1 G4J       0.497200
      6 C9           0.8210    -0.1870    -0.8550 c6         1 G4J       0.203800
      7 C13          2.8490     1.4370     0.2780 c5         1 G4J       0.091700
      8 C8          -0.7560     0.7580     0.7380 ca         1 G4J       0.756200
      9 N5          -1.7050     0.1920    -0.0010 nb         1 G4J      -0.866000
     10 C18          6.4810    -0.6840     0.4340 cx         1 G4J       0.425600
     11 C16          5.0470    -0.4700     0.6760 cx         1 G4J      -0.266700
     12 N1          -7.3380    -0.9310    -0.6200 na         1 G4J       0.119400
     13 C2          -6.0910    -1.0690    -1.1120 cd         1 G4J      -0.205300
     14 C3          -5.2500    -0.3950    -0.2480 cc         1 G4J      -0.008700
     15 C5          -2.9700     0.2880     0.4080 ca         1 G4J       0.952900
     16 N4          -3.4020     0.8940     1.5090 nb         1 G4J      -0.788000
     17 N6           0.5200     0.6700     0.2850 nh         1 G4J      -0.778300
     18 C10          2.0750     0.3050    -1.5650 c5         1 G4J       0.091700
     19 C11          1.9590     1.7870    -1.9510 c5         1 G4J      -0.077900
     20 C12          2.5010     2.5460    -0.7230 c5         1 G4J      -0.077900
     21 C14          1.6420     1.0500     1.1270 c6         1 G4J       0.203800
     22 N7           3.1660     0.3240    -0.6030 n          1 G4J      -0.476800
     23 C15          4.0570    -0.6630    -0.4390 c          1 G4J       0.714100
     24 O1           4.0810    -1.6650    -1.1390 o          1 G4J      -0.574100
     25 C17          6.0450     0.6970     0.6700 cx         1 G4J      -0.169400
     26 F1           6.9120    -1.0390    -0.7890 f          1 G4J      -0.194800
     27 F2           7.2190    -1.3300     1.3550 f          1 G4J      -0.194800
     28 H9          -3.4840    -0.7540    -1.2230 hn         1 G4J       0.453800
     29 H8          -5.8570     0.7050     1.6080 h4         1 G4J       0.064100
     30 H11         -0.3920     1.8890     2.5970 ha         1 G4J       0.146000
     31 H10         -2.7680     1.9430     3.1580 h4         1 G4J       0.016100
     32 H13          0.9590    -1.2270    -0.5350 h1         1 G4J       0.061700
     33 H12         -0.0190    -0.1670    -1.5440 h1         1 G4J       0.061700
     34 H2           3.6760     1.6930     0.9370 h1         1 G4J       0.088200
     35 H3           4.6760    -0.7580     1.6560 hc         1 G4J       0.116700
     36 H4          -9.1400    -0.6020    -1.6360 h1         1 G4J       0.054700
     37 H5          -8.3220    -2.1300    -1.9910 h1         1 G4J       0.054700
     38 H6          -9.1610    -1.9210    -0.4500 h1         1 G4J       0.054700
     39 H7          -5.8840    -1.6220    -2.0140 h4         1 G4J       0.171000
     40 H1           2.3000    -0.3480    -2.4050 h1         1 G4J       0.088200
     41 H15          2.5620     1.9940    -2.8340 hc         1 G4J       0.056950
     42 H14          0.9290     2.0550    -2.1880 hc         1 G4J       0.056950
     43 H17          1.7830     3.2500    -0.3030 hc         1 G4J       0.056950
     44 H16          3.4000     3.1070    -0.9770 hc         1 G4J       0.056950
     45 H19          1.9140     0.2360     1.8120 h1         1 G4J       0.061700
     46 H18          1.3790     1.9140     1.7330 h1         1 G4J       0.061700
     47 H20          6.2690     1.1630     1.6210 hc         1 G4J       0.099700
     48 H21          6.0250     1.3680    -0.1810 hc         1 G4J       0.099700
     49 C1          -8.5620    -1.4190    -1.2060 c3         1 G4J       0.048600
@<TRIPOS>BOND
     1     1    14 1   
     2     1    15 1   
     3     1    28 1   
     4     2     3 2   
     5     2    14 1   
     6     2    29 1   
     7     3    12 1   
     8     4     5 ar  
     9     4     8 ar  
    10     4    30 1   
    11     5    16 ar  
    12     5    31 1   
    13     6    17 1   
    14     6    18 1   
    15     6    32 1   
    16     6    33 1   
    17     7    20 1   
    18     7    21 1   
    19     7    22 1   
    20     7    34 1   
    21     8     9 ar  
    22     8    17 1   
    23     9    15 ar  
    24    10    11 1   
    25    10    25 1   
    26    10    26 1   
    27    10    27 1   
    28    11    23 1   
    29    11    25 1   
    30    11    35 1   
    31    12    13 1   
    32    12    49 1   
    33    13    14 2   
    34    13    39 1   
    35    15    16 ar  
    36    17    21 1   
    37    18    19 1   
    38    18    22 1   
    39    18    40 1   
    40    19    20 1   
    41    19    41 1   
    42    19    42 1   
    43    20    43 1   
    44    20    44 1   
    45    21    45 1   
    46    21    46 1   
    47    22    23 1   
    48    23    24 2   
    49    25    47 1   
    50    25    48 1   
    51    36    49 1   
    52    37    49 1   
    53    38    49 1   
@<TRIPOS>SUBSTRUCTURE
     1 G4J         1 TEMP              0 ****  ****    0 ROOT
