@<TRIPOS>MOLECULE
G4J
   49    53     1     0     0
SMALL
No Charge or Current Charge


@<TRIPOS>ATOM
      1 N3          -3.9840    -0.2350    -0.3220 nu         1 G4J      -0.902900
      2 C4          -6.1670    -0.2350     0.9270 cc         1 G4J       0.247900
      3 N2          -7.4370    -0.5550     0.7470 nd         1 G4J      -0.520800
      4 C7          -1.0500     1.2500     2.0490 ca         1 G4J      -0.343000
      5 C6          -2.3660     1.1620     2.5220 ca         1 G4J       0.168900
      6 C9           0.8370     0.0150    -1.0490 c6         1 G4J       0.203800
      7 C13          2.9600     1.6510     0.0840 c5         1 G4J       0.091700
      8 C8          -0.7910     0.8100     0.7390 ca         1 G4J       0.427900
      9 N5          -1.7850     0.3200    -0.0250 nb         1 G4J      -0.340000
     10 C18          6.2910    -0.9680     0.8330 cx         1 G4J       0.183000
     11 C16          4.8730    -0.4440     0.8670 cx         1 G4J      -0.266700
     12 N1          -7.4380    -1.0160    -0.5620 na         1 G4J       0.140800
     13 C2          -6.1720    -0.9710    -1.1600 cd         1 G4J      -0.238000
     14 C3          -5.3480    -0.4690    -0.2060 cc         1 G4J       0.195000
     15 C5          -3.0070     0.2780     0.5180 ca         1 G4J       0.426900
     16 N4          -3.3540     0.6740     1.7540 nb         1 G4J      -0.262000
     17 N6           0.5020     0.8550     0.1620 nh         1 G4J      -0.778300
     18 C10          2.1780     0.3960    -1.7530 c5         1 G4J       0.091700
     19 C11          2.1970     1.8700    -2.2620 c5         1 G4J      -0.077900
     20 C12          2.7190     2.7040    -1.0410 c5         1 G4J      -0.077900
     21 C14          1.6810     1.3810     0.9410 c6         1 G4J       0.203800
     22 N7           3.2470     0.4790    -0.7550 n          1 G4J      -0.409800
     23 C15          4.0000    -0.6410    -0.3500 c          1 G4J       0.647100
     24 O1           3.9340    -1.7100    -0.9410 o          1 G4J      -0.574100
     25 C17          6.0480     0.5170     0.8020 cx         1 G4J      -0.169400
     26 F1           6.7870    -1.5760    -0.2800 f          1 G4J      -0.073500
     27 F2           6.8190    -1.5330     1.9530 f          1 G4J      -0.073500
     28 H9          -3.6050    -0.4920    -1.2330 hn         1 G4J       0.509000
     29 H8          -5.8740     0.1620     1.8890 h4         1 G4J       0.064100
     30 H11         -0.2740     1.6420     2.6960 ha         1 G4J       0.128000
     31 H10         -2.6340     1.4830     3.5270 h4         1 G4J       0.016100
     32 H13          0.8910    -1.0430    -0.7530 h1         1 G4J       0.061700
     33 H12          0.0400     0.0920    -1.8040 h1         1 G4J       0.061700
     34 H2           3.7850     1.9520     0.7420 h1         1 G4J       0.088200
     35 H3           4.3500    -0.5300     1.8150 hc         1 G4J       0.116700
     36 H4          -9.4150    -0.6740    -1.2050 h1         1 G4J       0.054700
     37 H5          -8.4760    -1.8110    -2.2180 h1         1 G4J       0.054700
     38 H6          -9.0820    -2.3330    -0.6180 h1         1 G4J       0.054700
     39 H7          -5.9790    -1.2910    -2.1760 h4         1 G4J       0.153000
     40 H1           2.3910    -0.3190    -2.5590 h1         1 G4J       0.088200
     41 H15          2.8760     1.9750    -3.1150 hc         1 G4J       0.056950
     42 H14          1.2090     2.2020    -2.6020 hc         1 G4J       0.056950
     43 H17          2.0120     3.4830    -0.7340 hc         1 G4J       0.056950
     44 H16          3.6550     3.2120    -1.3000 hc         1 G4J       0.056950
     45 H19          1.9410     0.6660     1.7360 h1         1 G4J       0.061700
     46 H18          1.4140     2.3270     1.4340 h1         1 G4J       0.061700
     47 H20          6.2940     1.0870     1.6950 hc         1 G4J       0.099700
     48 H21          6.2360     1.0380    -0.1350 hc         1 G4J       0.099700
     49 C1          -8.6800    -1.4880    -1.1900 c3         1 G4J       0.077900
@<TRIPOS>BOND
     1     1    14 1   
     2     1    15 1   
     3     1    28 1   
     4     2     3 2   
     5     2    14 1   
     6     2    29 1   
     7     3    12 1   
     8     4     5 ar  
     9     4     8 ar  
    10     4    30 1   
    11     5    16 ar  
    12     5    31 1   
    13     6    17 1   
    14     6    18 1   
    15     6    32 1   
    16     6    33 1   
    17     7    20 1   
    18     7    21 1   
    19     7    22 1   
    20     7    34 1   
    21     8     9 ar  
    22     8    17 1   
    23     9    15 ar  
    24    10    11 1   
    25    10    25 1   
    26    10    26 1   
    27    10    27 1   
    28    11    23 1   
    29    11    25 1   
    30    11    35 1   
    31    12    13 1   
    32    12    49 1   
    33    13    14 2   
    34    13    39 1   
    35    15    16 ar  
    36    17    21 1   
    37    18    19 1   
    38    18    22 1   
    39    18    40 1   
    40    19    20 1   
    41    19    41 1   
    42    19    42 1   
    43    20    43 1   
    44    20    44 1   
    45    21    45 1   
    46    21    46 1   
    47    22    23 1   
    48    23    24 2   
    49    25    47 1   
    50    25    48 1   
    51    36    49 1   
    52    37    49 1   
    53    38    49 1   
@<TRIPOS>SUBSTRUCTURE
     1 G4J         1 TEMP              0 ****  ****    0 ROOT
