@<TRIPOS>MOLECULE
G4K
   79    85     1     0     0
SMALL
No Charge or Current Charge


@<TRIPOS>ATOM
      1 CAM         -4.9330    -2.5800    -1.2240 ca         1 G4K      -0.094500
      2 CAN         -4.1290    -3.6710    -1.5970 ca         1 G4K      -0.111000
      3 CAO         -2.7820    -3.4690    -1.9380 ca         1 G4K      -0.102000
      4 CAP         -2.2400    -2.1740    -1.9060 ca         1 G4K      -0.111000
      5 CAQ         -3.0450    -1.0840    -1.5330 ca         1 G4K      -0.094500
      6 CAK         -4.4060    -1.2650    -1.1800 cp         1 G4K      -0.038000
      7 CAH         -5.2580    -0.1010    -0.7790 cp         1 G4K      -0.098000
      8 CAG         -6.5550    -0.0190    -1.3280 ca         1 G4K      -0.007000
      9 CAD         -7.3010     1.1440    -1.0890 ca         1 G4K      -0.223600
     10 CAC         -8.6810     1.3300    -1.6360 c          1 G4K       0.577600
     11 OBN         -9.2520     0.4730    -2.2930 o          1 G4K      -0.550000
     12 NAB         -9.2910     2.5330    -1.3570 ns         1 G4K      -0.385100
     13 CAA         -8.7390     3.5770    -0.6290 cc         1 G4K      -0.037400
     14 CAF         -7.4690     3.4110    -0.1290 cd         1 G4K      -0.368800
     15 CAE         -6.7220     2.1810    -0.3500 ca         1 G4K       0.459800
     16 NAJ         -5.4890     2.1360     0.1850 nb         1 G4K      -0.683000
     17 CAI         -4.7500     1.0130     0.0580 cq         1 G4K       0.460500
     18 CAL         -3.5220     0.9540     0.9370 cq         1 G4K      -0.158500
     19 CAV         -2.7490     2.1120     1.1800 ca         1 G4K      -0.079500
     20 CAU         -1.5990     2.0520     1.9860 ca         1 G4K      -0.107000
     21 CAR         -3.1250    -0.2590     1.5440 ca         1 G4K      -0.079500
     22 CAS         -1.9760    -0.3140     2.3500 ca         1 G4K      -0.107000
     23 CAT         -1.2010     0.8370     2.5730 ca         1 G4K      -0.076300
     24 CAW          0.0560     0.7640     3.4370 c3         1 G4K       0.216100
     25 NAX          1.0950    -0.1430     2.8920 n3         1 G4K      -0.723600
     26 CBC          2.2260    -0.3330     3.8390 c6         1 G4K       0.171300
     27 CBB          3.2250    -1.3860     3.3110 c6         1 G4K      -0.091900
     28 CAY          1.5710     0.2650     1.5390 c6         1 G4K       0.171300
     29 CAZ          2.5740    -0.7560     0.9570 c6         1 G4K      -0.091900
     30 CBA          3.7630    -0.9650     1.9210 c6         1 G4K       0.137700
     31 NBD          4.7810    -1.8680     1.3230 n          1 G4K      -0.292000
     32 CBE          5.8700    -1.3720     0.5350 ca         1 G4K       0.034600
     33 CBI          6.0270    -0.1570    -0.1460 ca         1 G4K      -0.138000
     34 CBH          4.9950    -3.2360     1.6140 c          1 G4K       0.592000
     35 OBM          4.3190    -4.0110     2.2680 o          1 G4K      -0.564000
     36 NBG          6.1690    -3.5240     0.9770 ns         1 G4K      -0.502600
     37 CBF          6.7180    -2.4350     0.2970 ca         1 G4K      -0.024400
     38 CBL          7.8340    -2.3350    -0.5330 ca         1 G4K      -0.081000
     39 CBK          8.0560    -1.0920    -1.1650 ca         1 G4K      -0.171000
     40 CBJ          7.1600    -0.0040    -0.9890 ca         1 G4K      -0.016000
     41 NBO          7.4450     1.1930    -1.7010 ns         1 G4K      -0.150000
     42 CBP          6.8220     2.4340    -1.7350 c          1 G4K       0.606100
     43 OBR          5.8170     2.7230    -1.0960 o          1 G4K      -0.581100
     44 CBQ          7.4820     3.4450    -2.6850 c3         1 G4K      -0.159400
     45 CBS          8.2430     4.5460    -1.9130 c3         1 G4K      -0.077100
     46 H1          -5.9700    -2.7590    -0.9500 ha         1 G4K       0.116500
     47 H2          -4.5510    -4.6740    -1.6200 ha         1 G4K       0.114000
     48 H3          -2.1600    -4.3130    -2.2260 ha         1 G4K       0.114000
     49 H4          -1.1980    -2.0140    -2.1710 ha         1 G4K       0.114000
     50 H5          -2.6100    -0.0870    -1.5220 ha         1 G4K       0.116500
     51 H6          -6.9510    -0.8150    -1.9550 ha         1 G4K       0.144000
     52 H7          -9.3810     4.4500    -0.5210 h4         1 G4K       0.201000
     53 H8          -7.0090     4.2090     0.4440 ha         1 G4K       0.216000
     54 H10         -3.0240     3.0660     0.7340 ha         1 G4K       0.123000
     55 H11         -1.0130     2.9530     2.1480 ha         1 G4K       0.123000
     56 H12         -3.7040    -1.1690     1.4040 ha         1 G4K       0.123000
     57 H13         -1.6800    -1.2590     2.8000 ha         1 G4K       0.123000
     58 H14          0.4690     1.7740     3.5610 h1         1 G4K       0.039200
     59 H15         -0.2470     0.4210     4.4360 h1         1 G4K       0.039200
     60 H17          2.7540     0.6190     4.0010 h1         1 G4K       0.034700
     61 H18          1.8510    -0.6660     4.8180 h1         1 G4K       0.034700
     62 H19          4.0540    -1.5030     4.0210 hc         1 G4K       0.065450
     63 H20          2.7060    -2.3510     3.2530 hc         1 G4K       0.065450
     64 H21          0.7260     0.3520     0.8400 h1         1 G4K       0.034700
     65 H22          2.0510     1.2530     1.5880 h1         1 G4K       0.034700
     66 H23          2.0650    -1.7130     0.7770 hc         1 G4K       0.065450
     67 H24          2.9330    -0.4020    -0.0180 hc         1 G4K       0.065450
     68 H25          4.2490     0.0120     2.0580 h1         1 G4K       0.057700
     69 H26          5.2950     0.6310    -0.0110 ha         1 G4K       0.158000
     70 H27          6.5750    -4.4550     0.9930 hn         1 G4K       0.467000
     71 H28          8.4930    -3.1840    -0.7040 ha         1 G4K       0.122000
     72 H29          8.9180    -0.9810    -1.8190 ha         1 G4K       0.112000
     73 H30          8.2630     1.1270    -2.2940 hn         1 G4K       0.148000
     74 H31          8.1940     2.9340    -3.3450 hc         1 G4K       0.057200
     75 H32          6.7010     3.9250    -3.2860 hc         1 G4K       0.057200
     76 H33          7.5630     5.1040    -1.2580 hc         1 G4K       0.045033
     77 H34          9.0370     4.1090    -1.2950 hc         1 G4K       0.045033
     78 H35          8.7030     5.2550    -2.6120 hc         1 G4K       0.045033
     79 H36        -10.2260     2.6310    -1.7380 hn         1 G4K       0.328500
@<TRIPOS>BOND
     1     1     2 ar  
     2     1     6 ar  
     3     1    46 1   
     4     2     3 ar  
     5     2    47 1   
     6     3     4 ar  
     7     3    48 1   
     8     4     5 ar  
     9     4    49 1   
    10     5     6 ar  
    11     5    50 1   
    12     6     7 1   
    13     7     8 ar  
    14     7    17 2   
    15     8     9 ar  
    16     8    51 1   
    17     9    10 1   
    18     9    15 ar  
    19    10    11 2   
    20    10    12 1   
    21    12    13 1   
    22    12    79 1   
    23    13    14 2   
    24    13    52 1   
    25    14    15 1   
    26    14    53 1   
    27    15    16 ar  
    28    16    17 1   
    29    17    18 1   
    30    18    19 1   
    31    18    21 2   
    32    19    20 ar  
    33    19    54 1   
    34    20    23 ar  
    35    20    55 1   
    36    21    22 ar  
    37    21    56 1   
    38    22    23 ar  
    39    22    57 1   
    40    23    24 1   
    41    24    25 1   
    42    24    58 1   
    43    24    59 1   
    44    25    26 1   
    45    25    28 1   
    46    26    27 1   
    47    26    60 1   
    48    26    61 1   
    49    27    30 1   
    50    27    62 1   
    51    27    63 1   
    52    28    29 1   
    53    28    64 1   
    54    28    65 1   
    55    29    30 1   
    56    29    66 1   
    57    29    67 1   
    58    30    31 1   
    59    30    68 1   
    60    31    32 1   
    61    31    34 1   
    62    32    33 ar  
    63    32    37 ar  
    64    33    40 ar  
    65    33    69 1   
    66    34    35 2   
    67    34    36 1   
    68    36    37 1   
    69    36    70 1   
    70    37    38 ar  
    71    38    39 ar  
    72    38    71 1   
    73    39    40 ar  
    74    39    72 1   
    75    40    41 1   
    76    41    42 1   
    77    41    73 1   
    78    42    43 2   
    79    42    44 1   
    80    44    45 1   
    81    44    74 1   
    82    44    75 1   
    83    45    76 1   
    84    45    77 1   
    85    45    78 1   
@<TRIPOS>SUBSTRUCTURE
     1 G4K         1 TEMP              0 ****  ****    0 ROOT
