@<TRIPOS>MOLECULE
G4K
   79    85     1     0     0
SMALL
bcc


@<TRIPOS>ATOM
      1 CAM         -4.4030    -2.4710    -1.1090 ca         1 G4K      -0.112500
      2 CAN         -3.4020    -3.2930    -1.6100 ca         1 G4K      -0.129000
      3 CAO         -2.2270    -2.7390    -2.0990 ca         1 G4K      -0.120000
      4 CAP         -2.0630    -1.3590    -2.0920 ca         1 G4K      -0.129000
      5 CAQ         -3.0620    -0.5400    -1.5910 ca         1 G4K      -0.112500
      6 CAK         -4.2430    -1.0870    -1.0880 cp         1 G4K      -0.038000
      7 CAH         -5.3250    -0.2220    -0.5710 cp         1 G4K      -0.163300
      8 CAG         -6.6100    -0.3750    -1.0530 ca         1 G4K      -0.025000
      9 CAD         -7.6280     0.4750    -0.6310 ca         1 G4K      -0.288900
     10 CAC         -8.9860     0.3220    -1.1490 c          1 G4K       0.720100
     11 OBN         -9.3310    -0.5450    -1.9400 o          1 G4K      -0.625500
     12 NAB         -9.8740     1.2500    -0.6720 ns         1 G4K      -0.452100
     13 CAA         -9.5680     2.2470     0.2070 cc         1 G4K       0.012600
     14 CAF         -8.3240     2.4050     0.6980 cd         1 G4K      -0.318800
     15 CAE         -7.3040     1.4950     0.2770 ca         1 G4K       0.525100
     16 NAJ         -6.0660     1.6310     0.7670 nb         1 G4K      -0.683000
     17 CAI         -5.1120     0.8030     0.3840 cq         1 G4K       0.525800
     18 CAL         -3.7910     1.0150     1.0170 cq         1 G4K      -0.158500
     19 CAV         -3.2610     2.2980     1.1070 ca         1 G4K      -0.097500
     20 CAU         -2.0040     2.5010     1.6590 ca         1 G4K      -0.125000
     21 CAR         -3.0600    -0.0510     1.5400 ca         1 G4K      -0.097500
     22 CAS         -1.8180     0.1600     2.1110 ca         1 G4K      -0.125000
     23 CAT         -1.2640     1.4380     2.1610 ca         1 G4K      -0.076300
     24 CAW          0.1010     1.6510     2.7600 c3         1 G4K       0.216100
     25 NAX          1.0410     0.6380     2.3300 n3         1 G4K      -0.723600
     26 CBC          2.2470     0.6260     3.1350 c6         1 G4K       0.171300
     27 CBB          3.1280    -0.5610     2.7760 c6         1 G4K      -0.091900
     28 CAY          1.3500     0.7480     0.9170 c6         1 G4K       0.171300
     29 CAZ          2.1970    -0.4250     0.4490 c6         1 G4K      -0.091900
     30 CBA          3.4640    -0.5210     1.2890 c6         1 G4K       0.137700
     31 NBD          4.3340    -1.6090     0.8710 n          1 G4K      -0.359000
     32 CBE          5.5650    -1.4550     0.2600 ca         1 G4K       0.034600
     33 CBI          6.2660    -0.3140    -0.0860 ca         1 G4K      -0.156000
     34 CBH          4.0350    -2.9530     0.9820 c          1 G4K       0.801500
     35 OBM          3.0230    -3.4480     1.4480 o          1 G4K      -0.639500
     36 NBG          5.1090    -3.6210     0.4570 ns         1 G4K      -0.456100
     37 CBF          6.0590    -2.7350     0.0010 ca         1 G4K      -0.024400
     38 CBL          7.2850    -2.9070    -0.6080 ca         1 G4K      -0.099000
     39 CBK          7.9990    -1.7700    -0.9600 ca         1 G4K      -0.189000
     40 CBJ          7.5050    -0.4840    -0.7100 ca         1 G4K       0.076600
     41 NBO          8.3140     0.5830    -1.1210 ns         1 G4K      -0.476100
     42 CBP          8.0950     1.9210    -1.0430 c          1 G4K       0.673100
     43 OBR          7.1110     2.4190    -0.5250 o          1 G4K      -0.581100
     44 CBQ          9.1900     2.7480    -1.6860 c3         1 G4K      -0.159400
     45 CBS          9.1080     4.2250    -1.3460 c3         1 G4K      -0.077100
     46 H1          -5.3100    -2.9130    -0.7130 ha         1 G4K       0.134500
     47 H2          -3.5400    -4.3660    -1.6100 ha         1 G4K       0.132000
     48 H3          -1.4440    -3.3780    -2.4860 ha         1 G4K       0.132000
     49 H4          -1.1530    -0.9190    -2.4780 ha         1 G4K       0.132000
     50 H5          -2.9210     0.5340    -1.5940 ha         1 G4K       0.134500
     51 H6          -6.8220    -1.1420    -1.7880 ha         1 G4K       0.162000
     52 H7         -10.3900     2.8930     0.4760 h4         1 G4K       0.151000
     53 H8          -8.0980     3.2000     1.3930 ha         1 G4K       0.166000
     54 H10         -3.8180     3.1390     0.7130 ha         1 G4K       0.141000
     55 H11         -1.5920     3.5030     1.6890 ha         1 G4K       0.141000
     56 H12         -3.4620    -1.0560     1.5040 ha         1 G4K       0.141000
     57 H13         -1.2570    -0.6790     2.5030 ha         1 G4K       0.141000
     58 H14          0.4460     2.6730     2.5290 h1         1 G4K       0.039200
     59 H15          0.0210     1.5970     3.8500 h1         1 G4K       0.039200
     60 H17          2.8270     1.5600     3.0240 h1         1 G4K       0.034700
     61 H18          1.9650     0.5590     4.1880 h1         1 G4K       0.034700
     62 H19          4.0460    -0.5230     3.3670 hc         1 G4K       0.065450
     63 H20          2.6100    -1.4860     3.0270 hc         1 G4K       0.065450
     64 H21          0.4200     0.7600     0.3460 h1         1 G4K       0.034700
     65 H22          1.8690     1.6970     0.6910 h1         1 G4K       0.034700
     66 H23          1.6150    -1.3450     0.5340 hc         1 G4K       0.065450
     67 H24          2.4550    -0.2910    -0.6030 hc         1 G4K       0.065450
     68 H25          4.0410     0.3920     1.1180 h1         1 G4K       0.057700
     69 H26          5.8720     0.6690     0.1150 ha         1 G4K       0.176000
     70 H27          5.1580    -4.6260     0.4040 hn         1 G4K       0.353500
     71 H28          7.6840    -3.8920    -0.8120 ha         1 G4K       0.140000
     72 H29          8.9610    -1.8860    -1.4440 ha         1 G4K       0.130000
     73 H30          9.1740     0.3060    -1.5710 hn         1 G4K       0.314500
     74 H31         10.1650     2.3450    -1.3980 hc         1 G4K       0.057200
     75 H32          9.1210     2.6040    -2.7690 hc         1 G4K       0.057200
     76 H33          8.1620     4.6610    -1.6610 hc         1 G4K       0.045033
     77 H34          9.2190     4.3960    -0.2760 hc         1 G4K       0.045033
     78 H35          9.9080     4.7650    -1.8520 hc         1 G4K       0.045033
     79 H36        -10.8250     1.1830    -1.0060 hn         1 G4K       0.328500
@<TRIPOS>BOND
     1     1     2 ar  
     2     1     6 ar  
     3     1    46 1   
     4     2     3 ar  
     5     2    47 1   
     6     3     4 ar  
     7     3    48 1   
     8     4     5 ar  
     9     4    49 1   
    10     5     6 ar  
    11     5    50 1   
    12     6     7 1   
    13     7     8 ar  
    14     7    17 2   
    15     8     9 ar  
    16     8    51 1   
    17     9    10 1   
    18     9    15 ar  
    19    10    11 2   
    20    10    12 1   
    21    12    13 1   
    22    12    79 1   
    23    13    14 2   
    24    13    52 1   
    25    14    15 1   
    26    14    53 1   
    27    15    16 ar  
    28    16    17 1   
    29    17    18 1   
    30    18    19 1   
    31    18    21 2   
    32    19    20 ar  
    33    19    54 1   
    34    20    23 ar  
    35    20    55 1   
    36    21    22 ar  
    37    21    56 1   
    38    22    23 ar  
    39    22    57 1   
    40    23    24 1   
    41    24    25 1   
    42    24    58 1   
    43    24    59 1   
    44    25    26 1   
    45    25    28 1   
    46    26    27 1   
    47    26    60 1   
    48    26    61 1   
    49    27    30 1   
    50    27    62 1   
    51    27    63 1   
    52    28    29 1   
    53    28    64 1   
    54    28    65 1   
    55    29    30 1   
    56    29    66 1   
    57    29    67 1   
    58    30    31 1   
    59    30    68 1   
    60    31    32 1   
    61    31    34 1   
    62    32    33 ar  
    63    32    37 ar  
    64    33    40 ar  
    65    33    69 1   
    66    34    35 2   
    67    34    36 1   
    68    36    37 1   
    69    36    70 1   
    70    37    38 ar  
    71    38    39 ar  
    72    38    71 1   
    73    39    40 ar  
    74    39    72 1   
    75    40    41 1   
    76    41    42 1   
    77    41    73 1   
    78    42    43 2   
    79    42    44 1   
    80    44    45 1   
    81    44    74 1   
    82    44    75 1   
    83    45    76 1   
    84    45    77 1   
    85    45    78 1   
@<TRIPOS>SUBSTRUCTURE
     1 G4K         1 TEMP              0 ****  ****    0 ROOT
