@<TRIPOS>MOLECULE
G4M
   85    89     1     0     0
SMALL
bcc


@<TRIPOS>ATOM
      1 OP3         73.3520    53.9770     5.1030 o          1 G4M      -0.887500
      2 PL          73.0680    54.3680     3.6300 p5         1 G4M       1.266900
      3 OP1         72.2570    55.6480     3.5150 o          1 G4M      -0.887500
      4 OP2         74.2630    54.2200     2.7090 o          1 G4M      -0.887500
      5 OP4         72.0470    53.1230     3.0690 os         1 G4M      -0.544200
      6 C5B         70.7700    53.0430     3.6350 c3         1 G4M       0.254700
      7 C5L         70.1680    51.6910     3.3550 ca         1 G4M      -0.102600
      8 C6L         69.2140    51.5860     2.3510 ca         1 G4M       0.344200
      9 N1L         68.5960    50.4610     2.0230 nb         1 G4M      -0.697000
     10 C2L         68.8870    49.3530     2.6910 ca         1 G4M       0.261600
     11 C2A         68.1480    48.0990     2.3250 c3         1 G4M      -0.122400
     12 C3L         69.8410    49.3550     3.7160 ca         1 G4M       0.024800
     13 O3L         70.1260    48.2440     4.4250 oh         1 G4M      -0.479100
     14 C4L         70.5140    50.5310     4.0530 ca         1 G4M      -0.035300
     15 C4A         71.5280    50.4960     5.1730 c3         1 G4M       0.220100
     16 N4A         72.6800    49.6570     4.8600 n7         1 G4M      -0.830200
     17 C4G         73.9160    50.3680     4.5960 c6         1 G4M       0.084500
     18 C5G         74.9050    49.3660     3.9700 c6         1 G4M       0.177100
     19 C6G         74.6570    49.1750     2.4890 c3         1 G4M      -0.076100
     20 O5G         76.2480    49.8030     4.1250 os         1 G4M      -0.404600
     21 C3G         74.5440    51.0740     5.8310 c6         1 G4M       0.182100
     22 O3G         75.1710    52.2750     5.5120 oh         1 G4M      -0.655800
     23 C2G         75.5690    50.1270     6.4310 c6         1 G4M       0.116100
     24 O2G         76.0320    50.6270     7.6600 oh         1 G4M      -0.585800
     25 C1G         76.7120    49.9520     5.4310 c6         1 G4M       0.367900
     26 O1G         77.4780    48.8310     5.8160 os         1 G4M      -0.624200
     27 P2          79.1120    48.9460     6.0220 p5         1 G4M       1.493800
     28 O3P         79.7360    49.6420     4.8550 o          1 G4M      -0.868000
     29 O4P         79.5490    47.5900     6.4630 o          1 G4M      -0.868000
     30 OPP         79.1260    49.9290     7.3480 os         1 G4M      -0.727800
     31 P           79.8730    51.3700     7.6100 p5         1 G4M       1.486800
     32 O1P         81.3330    51.2640     7.3050 o          1 G4M      -0.869500
     33 O2P         79.3820    51.8230     8.9520 o          1 G4M      -0.869500
     34 O5          79.1180    52.3390     6.5250 os         1 G4M      -0.591200
     35 C5          79.6570    52.7460     5.2900 c3         1 G4M       0.205400
     36 C4          79.7250    54.2570     5.2270 c5         1 G4M       0.100100
     37 O4          78.4240    54.8200     5.4060 os         1 G4M      -0.348600
     38 C3          80.6100    54.9070     6.2920 c5         1 G4M       0.060100
     39 O3          81.1250    56.1460     5.8640 oh         1 G4M      -0.636800
     40 C2          79.6150    55.2160     7.4100 c5         1 G4M       0.103100
     41 O2          79.9950    56.2260     8.2910 oh         1 G4M      -0.589800
     42 C1          78.3410    55.5330     6.6080 c5         1 G4M       0.256800
     43 N9          77.1160    55.2100     7.2990 na         1 G4M      -0.203900
     44 C8          76.8620    54.2020     8.2040 cc         1 G4M       0.459400
     45 N7          75.6240    54.1730     8.5880 nd         1 G4M      -0.625000
     46 C9          75.9250    55.8390     7.0890 cc         1 G4M       0.133800
     47 C7          75.0160    55.1930     7.9010 cd         1 G4M       0.185800
     48 C6          73.6540    55.6100     7.8720 c          1 G4M       0.704000
     49 O6          72.7020    55.1560     8.4830 o          1 G4M      -0.666500
     50 N3          75.7080    56.8610     6.2490 nc         1 G4M      -0.703100
     51 C10         74.4620    57.2620     6.2350 cd         1 G4M       0.736800
     52 N1          73.4930    56.7080     7.0190 ns         1 G4M      -0.498400
     53 N2          74.0910    58.2520     5.4110 nv         1 G4M      -0.936800
     54 H5B1        70.0980    53.8040     3.2170 h1         1 G4M       0.005700
     55 H5B2        70.7870    53.2180     4.7170 h1         1 G4M       0.005700
     56 H6L         68.9310    52.4700     1.7870 h4         1 G4M       0.008100
     57 H2A1        68.8200    47.2980     2.0060 hc         1 G4M       0.018700
     58 H2A2        67.5540    47.7130     3.1580 hc         1 G4M       0.018700
     59 H2A3        67.4640    48.3010     1.5040 hc         1 G4M       0.018700
     60 HO3L        69.5530    47.5110     4.1720 ho         1 G4M       0.388000
     61 H4A1        71.8370    51.5140     5.4200 h1         1 G4M       0.055700
     62 H4A2        71.0350    50.1130     6.0700 h1         1 G4M       0.055700
     63 HN4A        72.8180    48.9710     5.5900 hn         1 G4M       0.337800
     64 H4G         73.6940    51.1440     3.8580 h1         1 G4M       0.120700
     65 H5G         74.7690    48.3920     4.4650 h1         1 G4M      -0.000300
     66 H6G1        74.8360    50.1010     1.9400 hc         1 G4M       0.025033
     67 H6G2        75.2960    48.3950     2.0710 hc         1 G4M       0.025033
     68 H6G3        73.6200    48.8820     2.3280 hc         1 G4M       0.025033
     69 H3G         73.7430    51.2240     6.5750 h1         1 G4M       0.002700
     70 HO3G        74.4510    52.9680     5.3180 ho         1 G4M       0.510000
     71 H2G         75.0830    49.1490     6.5850 h1         1 G4M      -0.015300
     72 HO2G        76.7770    50.0920     7.9530 ho         1 G4M       0.419000
     73 H1G         77.3260    50.8560     5.4400 h2         1 G4M       0.108700
     74 H5'1        79.0170    52.3790     4.4840 h1         1 G4M       0.060200
     75 H5'2        80.6550    52.3380     5.1170 h1         1 G4M       0.060200
     76 H4          80.0880    54.5220     4.2270 h1         1 G4M       0.033700
     77 H3          81.4060    54.2310     6.6250 h1         1 G4M       0.081700
     78 HO3         81.8170    55.9930     5.2130 ho         1 G4M       0.390000
     79 H2          79.4830    54.3160     8.0080 h1         1 G4M       0.149700
     80 HO2         80.3760    56.9480     7.7760 ho         1 G4M       0.389000
     81 H1          78.2920    56.6080     6.4020 h2         1 G4M       0.050700
     82 H8          77.6300    53.5210     8.5400 h5         1 G4M       0.107100
     83 HN1         72.5430    57.0450     6.9210 hn         1 G4M       0.299500
     84 HN21        73.1940    58.6980     5.4920 hn         1 G4M       0.419800
     85 HN22        74.8120    58.7620     4.9320 hn         1 G4M       0.419800
@<TRIPOS>BOND
     1     1     2 1   
     2     2     3 1   
     3     2     4 1   
     4     2     5 1   
     5     5     6 1   
     6     6     7 1   
     7     6    54 1   
     8     6    55 1   
     9     7     8 ar  
    10     7    14 ar  
    11     8     9 ar  
    12     8    56 1   
    13     9    10 ar  
    14    10    11 1   
    15    10    12 ar  
    16    11    57 1   
    17    11    58 1   
    18    11    59 1   
    19    12    13 1   
    20    12    14 ar  
    21    13    60 1   
    22    14    15 1   
    23    15    16 1   
    24    15    61 1   
    25    15    62 1   
    26    16    17 1   
    27    16    63 1   
    28    17    18 1   
    29    17    21 1   
    30    17    64 1   
    31    18    19 1   
    32    18    20 1   
    33    18    65 1   
    34    19    66 1   
    35    19    67 1   
    36    19    68 1   
    37    20    25 1   
    38    21    22 1   
    39    21    23 1   
    40    21    69 1   
    41    22    70 1   
    42    23    24 1   
    43    23    25 1   
    44    23    71 1   
    45    24    72 1   
    46    25    26 1   
    47    25    73 1   
    48    26    27 1   
    49    27    28 1   
    50    27    29 1   
    51    27    30 1   
    52    30    31 1   
    53    31    32 1   
    54    31    33 1   
    55    31    34 1   
    56    34    35 1   
    57    35    36 1   
    58    35    74 1   
    59    35    75 1   
    60    36    37 1   
    61    36    38 1   
    62    36    76 1   
    63    37    42 1   
    64    38    39 1   
    65    38    40 1   
    66    38    77 1   
    67    39    78 1   
    68    40    41 1   
    69    40    42 1   
    70    40    79 1   
    71    41    80 1   
    72    42    43 1   
    73    42    81 1   
    74    43    44 1   
    75    43    46 1   
    76    44    45 2   
    77    44    82 1   
    78    45    47 1   
    79    46    47 2   
    80    46    50 1   
    81    47    48 1   
    82    48    49 2   
    83    48    52 1   
    84    50    51 2   
    85    51    52 1   
    86    51    53 1   
    87    52    83 1   
    88    53    84 1   
    89    53    85 1   
@<TRIPOS>SUBSTRUCTURE
     1 G4M         1 TEMP              0 ****  ****    0 ROOT
