@<TRIPOS>MOLECULE
G4M
   85    89     1     0     0
SMALL
No Charge or Current Charge


@<TRIPOS>ATOM
      1 OP3         74.2450    54.3590     2.6990 o          1 G4M      -0.887500
      2 PL          72.9670    54.8190     2.0960 p5         1 G4M       1.266900
      3 OP1         72.5270    56.0940     2.7230 o          1 G4M      -0.887500
      4 OP2         73.1390    55.0130     0.6310 o          1 G4M      -0.887500
      5 OP4         71.8560    53.6880     2.3390 os         1 G4M      -0.567400
      6 C5B         71.5700    53.3300     3.6910 c3         1 G4M       0.277900
      7 C5L         70.7120    52.0650     3.7350 ca         1 G4M      -0.037300
      8 C6L         69.6830    51.9190     2.7810 ca         1 G4M       0.278900
      9 N1L         68.8360    50.8650     2.7390 nb         1 G4M      -0.697000
     10 C2L         68.9820    49.9020     3.6740 ca         1 G4M       0.196300
     11 C2A         67.9930    48.7430     3.5870 c3         1 G4M      -0.122400
     12 C3L         69.9740    49.9550     4.6900 ca         1 G4M       0.090100
     13 O3L         70.0450    48.9640     5.6410 oh         1 G4M      -0.518100
     14 C4L         70.8720    51.0530     4.7220 ca         1 G4M      -0.035300
     15 C4A         71.9440    51.1340     5.8230 c3         1 G4M       0.220100
     16 N4A         73.0810    50.2080     5.6020 n7         1 G4M      -0.885400
     17 C4G         73.8690    50.2610     4.3240 c6         1 G4M       0.084500
     18 C5G         74.6230    48.8890     4.1370 c6         1 G4M       0.200300
     19 C6G         73.7410    47.8150     3.4520 c3         1 G4M      -0.076100
     20 O5G         75.8120    49.0490     3.3430 os         1 G4M      -0.451000
     21 C3G         74.8720    51.4810     4.2460 c6         1 G4M       0.205300
     22 O3G         75.0010    51.9610     2.8920 oh         1 G4M      -0.718000
     23 C2G         76.2500    51.0310     4.8250 c6         1 G4M       0.139300
     24 O2G         77.1850    52.1060     5.0410 oh         1 G4M      -0.708000
     25 C1G         76.8500    49.8540     3.9550 c6         1 G4M       0.414300
     26 O1G         77.6960    48.9860     4.7200 os         1 G4M      -0.647400
     27 P2          79.2500    49.3540     4.8950 p5         1 G4M       1.493800
     28 O3P         79.8140    49.7980     3.5890 o          1 G4M      -0.868000
     29 O4P         79.9390    48.1490     5.4430 o          1 G4M      -0.868000
     30 OPP         79.0760    50.5520     5.9070 os         1 G4M      -0.727800
     31 P           80.3460    50.7250     6.8270 p5         1 G4M       1.486800
     32 O1P         81.6690    50.6060     6.1470 o          1 G4M      -0.869500
     33 O2P         80.2500    49.9170     8.0770 o          1 G4M      -0.869500
     34 O5          80.0790    52.2700     7.1820 os         1 G4M      -0.614400
     35 C5          80.5210    53.2680     6.2460 c3         1 G4M       0.228600
     36 C4          79.9290    54.6530     6.6310 c5         1 G4M       0.123300
     37 O4          78.4920    54.6260     6.4340 os         1 G4M      -0.395000
     38 C3          80.1650    55.0980     8.1240 c5         1 G4M       0.083300
     39 O3          80.3650    56.5220     8.2680 oh         1 G4M      -0.759000
     40 C2          78.8110    54.6820     8.7610 c5         1 G4M       0.126300
     41 O2          78.6190    55.3750    10.0050 oh         1 G4M      -0.712000
     42 C1          77.8490    55.1350     7.6150 c5         1 G4M       0.309300
     43 N9          76.4630    54.6670     7.6650 na         1 G4M      -0.182500
     44 C8          75.9540    53.6550     8.4590 cc         1 G4M       0.459400
     45 N7          74.6350    53.5380     8.3190 nd         1 G4M      -0.625000
     46 C9          75.3970    55.2100     6.9940 cc         1 G4M       0.148400
     47 C7          74.2810    54.5100     7.3890 cd         1 G4M       0.120500
     48 C6          72.9550    54.8780     6.8070 c          1 G4M       0.561500
     49 O6          71.8770    54.3690     7.0900 o          1 G4M      -0.591000
     50 N3          75.4050    56.2360     6.0690 nc         1 G4M      -0.703100
     51 C10         74.2180    56.4670     5.5600 cd         1 G4M       0.736800
     52 N1          73.0560    55.8700     5.8830 ns         1 G4M      -0.431400
     53 N2          74.1670    57.3530     4.5900 nv         1 G4M      -1.047200
     54 H5B1        71.0250    54.1410     4.1910 h1         1 G4M       0.005700
     55 H5B2        72.5090    53.1770     4.2300 h1         1 G4M       0.005700
     56 H6L         69.5140    52.6810     2.0210 h4         1 G4M       0.008100
     57 H2A1        68.5180    47.7870     3.4660 hc         1 G4M       0.018700
     58 H2A2        67.3810    48.6800     4.4950 hc         1 G4M       0.018700
     59 H2A3        67.3060    48.8470     2.7380 hc         1 G4M       0.018700
     60 HO3L        69.3620    48.2900     5.4410 ho         1 G4M       0.427000
     61 H4A1        72.3100    52.1580     5.9430 h1         1 G4M       0.055700
     62 H4A2        71.4610    50.8910     6.7800 h1         1 G4M       0.055700
     63 HN4A        73.7160    50.2670     6.4050 hn         1 G4M       0.393000
     64 H4G         73.1700    50.3630     3.4790 h1         1 G4M       0.120700
     65 H5G         74.9290    48.4990     5.1190 h1         1 G4M      -0.000300
     66 H6G1        73.4240    48.1360     2.4520 hc         1 G4M       0.025033
     67 H6G2        74.2830    46.8680     3.3480 hc         1 G4M       0.025033
     68 H6G3        72.8370    47.6170     4.0410 hc         1 G4M       0.025033
     69 H3G         74.4830    52.2980     4.8700 h1         1 G4M       0.002700
     70 HO3G        74.7130    52.9410     2.8890 ho         1 G4M       0.549000
     71 H2G         76.0350    50.6090     5.8180 h1         1 G4M      -0.015300
     72 HO2G        77.9710    51.6680     5.4760 ho         1 G4M       0.518000
     73 H1G         77.4300    50.3050     3.1320 h2         1 G4M       0.108700
     74 H5'1        80.2080    53.0210     5.2220 h1         1 G4M       0.060200
     75 H5'2        81.6160    53.3440     6.2540 h1         1 G4M       0.060200
     76 H4          80.3510    55.3940     5.9400 h1         1 G4M       0.033700
     77 H3          81.0000    54.5420     8.5760 h1         1 G4M       0.081700
     78 HO3         81.2260    56.7470     7.8390 ho         1 G4M       0.489000
     79 H2          78.7710    53.5910     8.8950 h1         1 G4M       0.149700
     80 HO2         79.1800    56.1840     9.8880 ho         1 G4M       0.488000
     81 H1          77.8070    56.2300     7.5650 h2         1 G4M       0.050700
     82 H8          76.5770    53.0560     9.1140 h5         1 G4M       0.107100
     83 HN1         72.2110    56.1490     5.4140 hn         1 G4M       0.299500
     84 HN21        73.5540    57.0270     3.8310 hn         1 G4M       0.475000
     85 HN22        75.0870    57.6120     4.2650 hn         1 G4M       0.475000
@<TRIPOS>BOND
     1     1     2 1   
     2     2     3 1   
     3     2     4 1   
     4     2     5 1   
     5     5     6 1   
     6     6     7 1   
     7     6    54 1   
     8     6    55 1   
     9     7     8 ar  
    10     7    14 ar  
    11     8     9 ar  
    12     8    56 1   
    13     9    10 ar  
    14    10    11 1   
    15    10    12 ar  
    16    11    57 1   
    17    11    58 1   
    18    11    59 1   
    19    12    13 1   
    20    12    14 ar  
    21    13    60 1   
    22    14    15 1   
    23    15    16 1   
    24    15    61 1   
    25    15    62 1   
    26    16    17 1   
    27    16    63 1   
    28    17    18 1   
    29    17    21 1   
    30    17    64 1   
    31    18    19 1   
    32    18    20 1   
    33    18    65 1   
    34    19    66 1   
    35    19    67 1   
    36    19    68 1   
    37    20    25 1   
    38    21    22 1   
    39    21    23 1   
    40    21    69 1   
    41    22    70 1   
    42    23    24 1   
    43    23    25 1   
    44    23    71 1   
    45    24    72 1   
    46    25    26 1   
    47    25    73 1   
    48    26    27 1   
    49    27    28 1   
    50    27    29 1   
    51    27    30 1   
    52    30    31 1   
    53    31    32 1   
    54    31    33 1   
    55    31    34 1   
    56    34    35 1   
    57    35    36 1   
    58    35    74 1   
    59    35    75 1   
    60    36    37 1   
    61    36    38 1   
    62    36    76 1   
    63    37    42 1   
    64    38    39 1   
    65    38    40 1   
    66    38    77 1   
    67    39    78 1   
    68    40    41 1   
    69    40    42 1   
    70    40    79 1   
    71    41    80 1   
    72    42    43 1   
    73    42    81 1   
    74    43    44 1   
    75    43    46 1   
    76    44    45 2   
    77    44    82 1   
    78    45    47 1   
    79    46    47 2   
    80    46    50 1   
    81    47    48 1   
    82    48    49 2   
    83    48    52 1   
    84    50    51 2   
    85    51    52 1   
    86    51    53 1   
    87    52    83 1   
    88    53    84 1   
    89    53    85 1   
@<TRIPOS>SUBSTRUCTURE
     1 G4M         1 TEMP              0 ****  ****    0 ROOT
