@<TRIPOS>MOLECULE
G4N
   79    84     1     0     0
SMALL
abcg2


@<TRIPOS>ATOM
      1 CAQ          4.2400    -2.9300    -0.1870 ca         1 G4N      -0.094000
      2 CBB          3.0840    -3.6870    -0.0500 ca         1 G4N      -0.111500
      3 CBD          2.0590    -3.2490     0.7780 ca         1 G4N      -0.106000
      4 CBE          2.2000    -2.0540     1.4730 ca         1 G4N      -0.111500
      5 CAZ          3.3520    -1.2970     1.3330 ca         1 G4N      -0.094000
      6 CBG          4.3830    -1.7230     0.4960 cp         1 G4N      -0.035000
      7 CBH          5.6250    -0.9330     0.3590 cp         1 G4N      -0.101000
      8 CBI          6.8480    -1.5400     0.5640 ca         1 G4N      -0.006000
      9 CBQ          8.0220    -0.7940     0.5220 ca         1 G4N      -0.224600
     10 CBR          9.3170    -1.4310     0.7530 c          1 G4N       0.577600
     11 OBK          9.4710    -2.6270     0.9600 o          1 G4N      -0.550000
     12 NBN         10.3790    -0.5670     0.7220 ns         1 G4N      -0.385100
     13 CBO         10.2900     0.7770     0.5010 cc         1 G4N      -0.036400
     14 CBJ          9.1080     1.3840     0.2830 cd         1 G4N      -0.368800
     15 CBP          7.9210     0.5870     0.2870 ca         1 G4N       0.460800
     16 NBL          6.7400     1.1730     0.0540 nb         1 G4N      -0.684000
     17 CBM          5.6330     0.4540     0.0650 cq         1 G4N       0.461500
     18 CBF          4.3930     1.1930    -0.2580 cq         1 G4N      -0.158500
     19 CBA          3.4530     0.6800    -1.1530 ca         1 G4N      -0.079000
     20 CAR          2.2990     1.3850    -1.4440 ca         1 G4N      -0.108000
     21 CAX          4.1570     2.4370     0.3190 ca         1 G4N      -0.079000
     22 CAY          2.9870     3.1290     0.0410 ca         1 G4N      -0.108000
     23 CBC          2.0430     2.6130    -0.8390 ca         1 G4N      -0.075300
     24 CAW          0.7730     3.3640    -1.1450 c3         1 G4N       0.216100
     25 NAV         -0.3820     2.4930    -1.1440 n3         1 G4N      -0.728600
     26 CAU         -0.6890     2.0010     0.1860 c6         1 G4N       0.171300
     27 CAT         -1.7960     0.9600     0.1470 c6         1 G4N      -0.091900
     28 CAO         -1.5430     3.1120    -1.7550 c6         1 G4N       0.171300
     29 CAP         -2.6810     2.1110    -1.8780 c6         1 G4N      -0.091900
     30 CAS         -3.0430     1.5300    -0.5130 c6         1 G4N       0.112700
     31 NAN         -4.0610     0.5040    -0.6180 ns         1 G4N      -0.502900
     32 CAM         -5.3790     0.7550    -0.6420 c          1 G4N       0.611700
     33 OAL         -5.8530     1.8700    -0.4620 o          1 G4N      -0.595100
     34 CAK         -6.2630    -0.4300    -0.8910 ca         1 G4N      -0.120600
     35 CAJ         -7.5420    -0.4020    -0.3410 ca         1 G4N      -0.086000
     36 CAC         -5.8550    -1.5010    -1.6780 ca         1 G4N      -0.122000
     37 CAD         -6.7330    -2.5530    -1.9000 ca         1 G4N      -0.089000
     38 CAH         -7.9970    -2.5420    -1.3410 ca         1 G4N      -0.156000
     39 CAI         -8.4170    -1.4660    -0.5520 ca         1 G4N      -0.021000
     40 NAB         -9.7090    -1.5380    -0.0310 ns         1 G4N      -0.154000
     41 CAA        -10.3740    -0.6640     0.7740 c          1 G4N       0.604100
     42 OAE         -9.9050     0.3880     1.1640 o          1 G4N      -0.563100
     43 CAF        -11.7630    -1.1380     1.1480 c3         1 G4N      -0.159400
     44 CAG        -12.5620    -0.1130     1.9310 c3         1 G4N      -0.077100
     45 H1           5.0290    -3.2720    -0.8450 ha         1 G4N       0.118000
     46 H2           2.9840    -4.6170    -0.5940 ha         1 G4N       0.113500
     47 H3           1.1560    -3.8370     0.8820 ha         1 G4N       0.112000
     48 H4           1.4100    -1.7110     2.1290 ha         1 G4N       0.113500
     49 H5           3.4520    -0.3720     1.8860 ha         1 G4N       0.118000
     50 H6           6.8960    -2.5980     0.7900 ha         1 G4N       0.144000
     51 H7          11.2290     1.3100     0.5120 h4         1 G4N       0.202000
     52 H8           9.0530     2.4480     0.1090 ha         1 G4N       0.216000
     53 H10          3.6260    -0.2750    -1.6320 ha         1 G4N       0.123000
     54 H11          1.5760     0.9680    -2.1320 ha         1 G4N       0.121000
     55 H12          4.8760     2.8550     1.0110 ha         1 G4N       0.123000
     56 H13          2.8030     4.0810     0.5250 ha         1 G4N       0.121000
     57 H14          0.6710     4.2050    -0.4390 h1         1 G4N       0.040700
     58 H15          0.8570     3.8110    -2.1410 h1         1 G4N       0.040700
     59 H17          0.2080     1.5530     0.6170 h1         1 G4N       0.036700
     60 H18         -0.9840     2.8270     0.8570 h1         1 G4N       0.036700
     61 H19         -1.4490     0.0870    -0.4160 hc         1 G4N       0.053200
     62 H20         -2.0210     0.6280     1.1630 hc         1 G4N       0.053200
     63 H21         -1.8860     3.9910    -1.1810 h1         1 G4N       0.036700
     64 H22         -1.2670     3.4750    -2.7470 h1         1 G4N       0.036700
     65 H23         -3.5510     2.5950    -2.3260 hc         1 G4N       0.053200
     66 H24         -2.3780     1.2970    -2.5440 hc         1 G4N       0.053200
     67 H25         -3.4380     2.3320     0.1180 h1         1 G4N       0.076700
     68 H26         -3.7420    -0.4460    -0.7320 hn         1 G4N       0.313500
     69 H27         -7.8430     0.4460     0.2520 ha         1 G4N       0.169000
     70 H28         -4.8800    -1.5180    -2.1480 ha         1 G4N       0.113000
     71 H29         -6.4330    -3.3870    -2.5200 ha         1 G4N       0.115000
     72 H30         -8.6710    -3.3700    -1.5220 ha         1 G4N       0.109000
     73 H31        -10.2170    -2.3730    -0.2840 hn         1 G4N       0.147000
     74 H32        -12.2950    -1.4220     0.2350 hc         1 G4N       0.056200
     75 H33        -11.6610    -2.0610     1.7270 hc         1 G4N       0.056200
     76 H34        -12.0690     0.1540     2.8650 hc         1 G4N       0.045367
     77 H35        -12.7180     0.8010     1.3600 hc         1 G4N       0.045367
     78 H36        -13.5420    -0.5210     2.1790 hc         1 G4N       0.045367
     79 H37         11.2940    -0.9650     0.8810 hn         1 G4N       0.329500
@<TRIPOS>BOND
     1     1     2 ar  
     2     1     6 ar  
     3     1    45 1   
     4     2     3 ar  
     5     2    46 1   
     6     3     4 ar  
     7     3    47 1   
     8     4     5 ar  
     9     4    48 1   
    10     5     6 ar  
    11     5    49 1   
    12     6     7 1   
    13     7     8 ar  
    14     7    17 2   
    15     8     9 ar  
    16     8    50 1   
    17     9    10 1   
    18     9    15 ar  
    19    10    11 2   
    20    10    12 1   
    21    12    13 1   
    22    12    79 1   
    23    13    14 2   
    24    13    51 1   
    25    14    15 1   
    26    14    52 1   
    27    15    16 ar  
    28    16    17 1   
    29    17    18 1   
    30    18    19 1   
    31    18    21 2   
    32    19    20 ar  
    33    19    53 1   
    34    20    23 ar  
    35    20    54 1   
    36    21    22 ar  
    37    21    55 1   
    38    22    23 ar  
    39    22    56 1   
    40    23    24 1   
    41    24    25 1   
    42    24    57 1   
    43    24    58 1   
    44    25    26 1   
    45    25    28 1   
    46    26    27 1   
    47    26    59 1   
    48    26    60 1   
    49    27    30 1   
    50    27    61 1   
    51    27    62 1   
    52    28    29 1   
    53    28    63 1   
    54    28    64 1   
    55    29    30 1   
    56    29    65 1   
    57    29    66 1   
    58    30    31 1   
    59    30    67 1   
    60    31    32 1   
    61    31    68 1   
    62    32    33 2   
    63    32    34 1   
    64    34    35 ar  
    65    34    36 ar  
    66    35    39 ar  
    67    35    69 1   
    68    36    37 ar  
    69    36    70 1   
    70    37    38 ar  
    71    37    71 1   
    72    38    39 ar  
    73    38    72 1   
    74    39    40 1   
    75    40    41 1   
    76    40    73 1   
    77    41    42 2   
    78    41    43 1   
    79    43    44 1   
    80    43    74 1   
    81    43    75 1   
    82    44    76 1   
    83    44    77 1   
    84    44    78 1   
@<TRIPOS>SUBSTRUCTURE
     1 G4N         1 TEMP              0 ****  ****    0 ROOT
