@<TRIPOS>MOLECULE
G4N
   79    84     1     0     0
SMALL
No Charge or Current Charge


@<TRIPOS>ATOM
      1 CAQ          5.0830    -3.0500    -1.2480 ca         1 G4N      -0.094000
      2 CBB          4.0550    -3.9940    -1.4140 ca         1 G4N      -0.111500
      3 CBD          2.8850    -3.9030    -0.6430 ca         1 G4N      -0.106000
      4 CBE          2.7460    -2.8680     0.2960 ca         1 G4N      -0.111500
      5 CAZ          3.7740    -1.9250     0.4620 ca         1 G4N      -0.094000
      6 CBG          4.9620    -1.9940    -0.3100 cp         1 G4N      -0.035000
      7 CBH          6.0540    -0.9850    -0.1320 cp         1 G4N      -0.101000
      8 CBI          7.3800    -1.4600    -0.0650 ca         1 G4N      -0.006000
      9 CBQ          8.3940    -0.5470     0.2610 ca         1 G4N      -0.224600
     10 CBR          9.8280    -0.9570     0.3670 c          1 G4N       0.577600
     11 OBK         10.2070    -2.0970     0.1460 o          1 G4N      -0.550000
     12 NBN         10.7190     0.0300     0.7300 ns         1 G4N      -0.385100
     13 CBO         10.4020     1.3510     1.0090 cc         1 G4N      -0.036400
     14 CBJ          9.0830     1.7290     0.9170 cd         1 G4N      -0.368800
     15 CBP          8.0470     0.7800     0.5370 ca         1 G4N       0.460800
     16 NBL          6.7940     1.2640     0.4840 nb         1 G4N      -0.684000
     17 CBM          5.7840     0.4550     0.0990 cq         1 G4N       0.461500
     18 CBF          4.4850     1.1600    -0.2150 cq         1 G4N      -0.158500
     19 CBA          3.6720     0.7350    -1.2900 ca         1 G4N      -0.079000
     20 CAR          2.4580     1.3850    -1.5720 ca         1 G4N      -0.108000
     21 CAX          4.0590     2.2690     0.5520 ca         1 G4N      -0.079000
     22 CAY          2.8440     2.9150     0.2670 ca         1 G4N      -0.108000
     23 CBC          2.0330     2.4750    -0.7940 ca         1 G4N      -0.075300
     24 CAW          0.7050     3.1660    -1.0990 c3         1 G4N       0.216100
     25 NAV         -0.4740     2.2810    -0.9350 n3         1 G4N      -0.728600
     26 CAU         -0.6180     1.7570     0.4530 c6         1 G4N       0.171300
     27 CAT         -1.7900     0.7540     0.5570 c6         1 G4N      -0.091900
     28 CAO         -1.7290     2.9260    -1.4070 c6         1 G4N       0.171300
     29 CAP         -2.9250     1.9490    -1.3430 c6         1 G4N      -0.091900
     30 CAS         -3.1140     1.4010     0.0910 c6         1 G4N       0.112700
     31 NAN         -4.2060     0.4200     0.1370 ns         1 G4N      -0.502900
     32 CAM         -5.5490     0.7150     0.2250 c          1 G4N       0.611700
     33 OAL         -5.9380     1.8740     0.2940 o          1 G4N      -0.595100
     34 CAK         -6.5060    -0.4640     0.2330 ca         1 G4N      -0.120600
     35 CAJ         -7.8990    -0.2250     0.3230 ca         1 G4N      -0.086000
     36 CAC         -6.0520    -1.8030     0.1520 ca         1 G4N      -0.122000
     37 CAD         -6.9690    -2.8650     0.1580 ca         1 G4N      -0.089000
     38 CAH         -8.3450    -2.6120     0.2470 ca         1 G4N      -0.156000
     39 CAI         -8.8250    -1.2940     0.3330 ca         1 G4N      -0.021000
     40 NAB        -10.2340    -1.1170     0.4170 ns         1 G4N      -0.154000
     41 CAA        -11.0290     0.0080     0.5950 c          1 G4N       0.604100
     42 OAE        -10.5960     1.1430     0.7570 o          1 G4N      -0.563100
     43 CAF        -12.5370    -0.2820     0.6180 c3         1 G4N      -0.159400
     44 CAG        -13.2350     0.2060    -0.6710 c3         1 G4N      -0.077100
     45 H1           5.9750    -3.1290    -1.8650 ha         1 G4N       0.118000
     46 H2           4.1640    -4.7930    -2.1430 ha         1 G4N       0.113500
     47 H3           2.0890    -4.6330    -0.7720 ha         1 G4N       0.112000
     48 H4           1.8410    -2.7970     0.8970 ha         1 G4N       0.113500
     49 H5           3.6520    -1.1360     1.2000 ha         1 G4N       0.118000
     50 H6           7.6080    -2.5130    -0.2190 ha         1 G4N       0.144000
     51 H7          11.2500     1.9780     1.2820 h4         1 G4N       0.202000
     52 H8           8.8020     2.7550     1.1300 ha         1 G4N       0.216000
     53 H10          3.9720    -0.0980    -1.9210 ha         1 G4N       0.123000
     54 H11          1.8410     1.0360    -2.3970 ha         1 G4N       0.121000
     55 H12          4.6590     2.6300     1.3850 ha         1 G4N       0.123000
     56 H13          2.5310     3.7590     0.8780 ha         1 G4N       0.121000
     57 H14          0.6020     4.0510    -0.4560 h1         1 G4N       0.040700
     58 H15          0.7510     3.5320    -2.1340 h1         1 G4N       0.040700
     59 H17          0.3020     1.2450     0.7720 h1         1 G4N       0.036700
     60 H18         -0.7880     2.5850     1.1580 h1         1 G4N       0.036700
     61 H19         -1.5650    -0.1320    -0.0530 hc         1 G4N       0.053200
     62 H20         -1.8850     0.4080     1.5950 hc         1 G4N       0.053200
     63 H21         -1.9550     3.8130    -0.7950 h1         1 G4N       0.036700
     64 H22         -1.6120     3.2710    -2.4450 h1         1 G4N       0.036700
     65 H23         -3.8360     2.4640    -1.6730 hc         1 G4N       0.053200
     66 H24         -2.7580     1.1200    -2.0450 hc         1 G4N       0.053200
     67 H25         -3.3580     2.2350     0.7670 h1         1 G4N       0.076700
     68 H26         -3.9650    -0.5600     0.0840 hn         1 G4N       0.313500
     69 H27         -8.2450     0.8020     0.3780 ha         1 G4N       0.169000
     70 H28         -4.9940    -2.0400     0.0820 ha         1 G4N       0.113000
     71 H29         -6.6100    -3.8910     0.0940 ha         1 G4N       0.115000
     72 H30         -9.0420    -3.4470     0.2500 ha         1 G4N       0.109000
     73 H31        -10.7570    -1.9780     0.3240 hn         1 G4N       0.147000
     74 H32        -12.7130    -1.3600     0.7160 hc         1 G4N       0.056200
     75 H33        -12.9840     0.2440     1.4700 hc         1 G4N       0.056200
     76 H34        -13.1090     1.2890    -0.7970 hc         1 G4N       0.045367
     77 H35        -12.8170    -0.2950    -1.5530 hc         1 G4N       0.045367
     78 H36        -14.3090    -0.0100    -0.6310 hc         1 G4N       0.045367
     79 H37         11.6840    -0.2750     0.7910 hn         1 G4N       0.329500
@<TRIPOS>BOND
     1     1     2 ar  
     2     1     6 ar  
     3     1    45 1   
     4     2     3 ar  
     5     2    46 1   
     6     3     4 ar  
     7     3    47 1   
     8     4     5 ar  
     9     4    48 1   
    10     5     6 ar  
    11     5    49 1   
    12     6     7 1   
    13     7     8 ar  
    14     7    17 2   
    15     8     9 ar  
    16     8    50 1   
    17     9    10 1   
    18     9    15 ar  
    19    10    11 2   
    20    10    12 1   
    21    12    13 1   
    22    12    79 1   
    23    13    14 2   
    24    13    51 1   
    25    14    15 1   
    26    14    52 1   
    27    15    16 ar  
    28    16    17 1   
    29    17    18 1   
    30    18    19 1   
    31    18    21 2   
    32    19    20 ar  
    33    19    53 1   
    34    20    23 ar  
    35    20    54 1   
    36    21    22 ar  
    37    21    55 1   
    38    22    23 ar  
    39    22    56 1   
    40    23    24 1   
    41    24    25 1   
    42    24    57 1   
    43    24    58 1   
    44    25    26 1   
    45    25    28 1   
    46    26    27 1   
    47    26    59 1   
    48    26    60 1   
    49    27    30 1   
    50    27    61 1   
    51    27    62 1   
    52    28    29 1   
    53    28    63 1   
    54    28    64 1   
    55    29    30 1   
    56    29    65 1   
    57    29    66 1   
    58    30    31 1   
    59    30    67 1   
    60    31    32 1   
    61    31    68 1   
    62    32    33 2   
    63    32    34 1   
    64    34    35 ar  
    65    34    36 ar  
    66    35    39 ar  
    67    35    69 1   
    68    36    37 ar  
    69    36    70 1   
    70    37    38 ar  
    71    37    71 1   
    72    38    39 ar  
    73    38    72 1   
    74    39    40 1   
    75    40    41 1   
    76    40    73 1   
    77    41    42 2   
    78    41    43 1   
    79    43    44 1   
    80    43    74 1   
    81    43    75 1   
    82    44    76 1   
    83    44    77 1   
    84    44    78 1   
@<TRIPOS>SUBSTRUCTURE
     1 G4N         1 TEMP              0 ****  ****    0 ROOT
