@<TRIPOS>MOLECULE
G4O
   13    12     1     0     0
SMALL
No Charge or Current Charge


@<TRIPOS>ATOM
      1 N1          33.5560    14.8070    12.0560 n8         1 G4O      -0.989200
      2 C2          33.9610    16.1460    11.6050 c3         1 G4O       0.153500
      3 C3          32.7480    16.8960    11.0200 c3         1 G4O      -0.107600
      4 C1          34.6240    16.9150    12.7630 c3         1 G4O      -0.107600
      5 H1          34.3640    14.3440    12.4890 hn         1 G4O       0.388500
      6 H2          32.8930    14.9070    12.8340 hn         1 G4O       0.388500
      7 H4          34.7060    16.0240    10.8040 h1         1 G4O       0.057700
      8 H5          33.0520    17.8790    10.6410 hc         1 G4O       0.036033
      9 H6          32.3090    16.3350    10.1860 hc         1 G4O       0.036033
     10 H7          31.9720    17.0480    11.7810 hc         1 G4O       0.036033
     11 H8          35.4980    16.3720    13.1440 hc         1 G4O       0.036033
     12 H9          34.9650    17.9000    12.4220 hc         1 G4O       0.036033
     13 H10         33.9210    17.0660    13.5920 hc         1 G4O       0.036033
@<TRIPOS>BOND
     1     1     2 1   
     2     1     5 1   
     3     1     6 1   
     4     2     3 1   
     5     2     4 1   
     6     2     7 1   
     7     3     8 1   
     8     3     9 1   
     9     3    10 1   
    10     4    11 1   
    11     4    12 1   
    12     4    13 1   
@<TRIPOS>SUBSTRUCTURE
     1 G4O         1 TEMP              0 ****  ****    0 ROOT
