@<TRIPOS>MOLECULE
G4O
   13    12     1     0     0
SMALL
bcc


@<TRIPOS>ATOM
      1 N1          33.5400    14.8020    12.0400 n8         1 G4O      -0.878800
      2 C2          33.9650    16.1370    11.6290 c3         1 G4O       0.153500
      3 C3          32.7740    16.8840    11.0440 c3         1 G4O      -0.107600
      4 C1          34.6220    16.9430    12.7480 c3         1 G4O      -0.107600
      5 H1          34.3300    14.3070    12.4380 hn         1 G4O       0.333300
      6 H2          32.8700    14.8900    12.7970 hn         1 G4O       0.333300
      7 H4          34.7040    16.0020    10.8310 h1         1 G4O       0.057700
      8 H5          33.0700    17.8650    10.6720 hc         1 G4O       0.036033
      9 H6          32.3280    16.3280    10.2190 hc         1 G4O       0.036033
     10 H7          32.0020    17.0370    11.8030 hc         1 G4O       0.036033
     11 H8          35.4940    16.4210    13.1460 hc         1 G4O       0.036033
     12 H9          34.9510    17.9240    12.3990 hc         1 G4O       0.036033
     13 H10         33.9200    17.0990    13.5710 hc         1 G4O       0.036033
@<TRIPOS>BOND
     1     1     2 1   
     2     1     5 1   
     3     1     6 1   
     4     2     3 1   
     5     2     4 1   
     6     2     7 1   
     7     3     8 1   
     8     3     9 1   
     9     3    10 1   
    10     4    11 1   
    11     4    12 1   
    12     4    13 1   
@<TRIPOS>SUBSTRUCTURE
     1 G4O         1 TEMP              0 ****  ****    0 ROOT
