@<TRIPOS>MOLECULE
G4Q
   74    79     1     0     0
SMALL
abcg2


@<TRIPOS>ATOM
      1 CAL         -2.7920    -1.7880    -0.0150 ca         1 G4Q      -0.094500
      2 CAM         -1.7000    -2.5500     0.3710 ca         1 G4Q      -0.111500
      3 CAN         -1.5630    -2.9580     1.6920 ca         1 G4Q      -0.104000
      4 CAO         -2.5310    -2.6060     2.6230 ca         1 G4Q      -0.111500
      5 CAP         -3.6270    -1.8460     2.2350 ca         1 G4Q      -0.094500
      6 CAK         -3.7660    -1.4230     0.9140 cp         1 G4Q      -0.037000
      7 CAH         -4.9470    -0.6340     0.5080 cp         1 G4Q      -0.100000
      8 CAG         -6.2140    -1.0980     0.8040 ca         1 G4Q      -0.006000
      9 CAD         -7.3390    -0.4050     0.3680 ca         1 G4Q      -0.223600
     10 CAC         -8.6810    -0.8990     0.6710 c          1 G4Q       0.577600
     11 OBO         -8.9150    -1.9050     1.3270 o          1 G4Q      -0.549000
     12 NAB         -9.6900    -0.1320     0.1500 ns         1 G4Q      -0.385100
     13 CAA         -9.5120     1.0000    -0.5900 cc         1 G4Q      -0.036400
     14 CAF         -8.2850     1.4740    -0.8800 cd         1 G4Q      -0.369800
     15 CAE         -7.1460     0.7610    -0.3910 ca         1 G4Q       0.460800
     16 NAJ         -5.9200     1.2290    -0.6560 nb         1 G4Q      -0.684000
     17 CAI         -4.8580     0.5820    -0.2150 cq         1 G4Q       0.460500
     18 CAQ         -3.5570     1.2190    -0.5170 cq         1 G4Q      -0.157500
     19 CAV         -3.3040     1.7080    -1.7950 ca         1 G4Q      -0.078500
     20 CAU         -2.0870     2.3060    -2.0900 ca         1 G4Q      -0.108500
     21 CAR         -2.5800     1.3730     0.4650 ca         1 G4Q      -0.078500
     22 CAS         -1.3780     1.9920     0.1730 ca         1 G4Q      -0.108500
     23 CAT         -1.1110     2.4600    -1.1120 ca         1 G4Q      -0.075300
     24 CAW          0.1890     3.1540    -1.4210 c3         1 G4Q       0.214100
     25 NAX          1.3220     2.5150    -0.7890 n3         1 G4Q      -0.721600
     26 CBC          2.5030     3.3520    -0.8060 c6         1 G4Q       0.160300
     27 CBB          3.6330     2.6880    -0.0460 c6         1 G4Q       0.196300
     28 CAY          1.6220     1.2260    -1.3770 c6         1 G4Q       0.160300
     29 CAZ          2.7510     0.5340    -0.6350 c6         1 G4Q       0.196300
     30 NBA          3.9280     1.3760    -0.6050 nh         1 G4Q      -0.785400
     31 CBD          5.1420     0.7880    -0.2440 ca         1 G4Q       0.268000
     32 CBI          6.3390     1.5110    -0.3550 ca         1 G4Q      -0.133000
     33 CBH          7.5550     0.9370    -0.0490 ca         1 G4Q      -0.120000
     34 CBE          5.2460    -0.5340     0.1950 ca         1 G4Q      -0.133000
     35 CBF          6.4710    -1.1220     0.4910 ca         1 G4Q      -0.120000
     36 CBG          7.6490    -0.3920     0.3760 ca         1 G4Q      -0.053000
     37 NBJ          8.9340    -0.8820     0.6500 ns         1 G4Q      -0.144000
     38 CBK          9.3230    -2.1280     1.0100 c          1 G4Q       0.603100
     39 OBM          8.5550    -3.0670     1.1450 o          1 G4Q      -0.586100
     40 CBL         10.8110    -2.2620     1.2620 c3         1 G4Q      -0.157400
     41 CBN         11.3500    -3.6320     0.8810 c3         1 G4Q      -0.079100
     42 H1          -2.8900    -1.4820    -1.0490 ha         1 G4Q       0.117500
     43 H2          -0.9560    -2.8290    -0.3640 ha         1 G4Q       0.114500
     44 H3          -0.7080    -3.5480     1.9930 ha         1 G4Q       0.114000
     45 H4          -2.4340    -2.9190     3.6540 ha         1 G4Q       0.114500
     46 H5          -4.3700    -1.5640     2.9710 ha         1 G4Q       0.117500
     47 H6          -6.3350    -2.0230     1.3550 ha         1 G4Q       0.144000
     48 H7         -10.4200     1.4830    -0.9190 h4         1 G4Q       0.201000
     49 H8          -8.1600     2.3710    -1.4660 ha         1 G4Q       0.216000
     50 H10         -4.0520     1.6000    -2.5700 ha         1 G4Q       0.123500
     51 H11         -1.8950     2.6550    -3.0990 ha         1 G4Q       0.121500
     52 H12         -2.7610     1.0180     1.4720 ha         1 G4Q       0.123500
     53 H13         -0.6270     2.1030     0.9450 ha         1 G4Q       0.121500
     54 H14          0.3100     3.2360    -2.5140 h1         1 G4Q       0.040700
     55 H15          0.1300     4.1820    -1.0480 h1         1 G4Q       0.040700
     56 H17          2.8380     3.5740    -1.8330 h1         1 G4Q       0.041450
     57 H18          2.2740     4.3070    -0.3270 h1         1 G4Q       0.041450
     58 H19          4.5090     3.3300    -0.1030 h1         1 G4Q       0.043950
     59 H20          3.3560     2.6050     1.0160 h1         1 G4Q       0.043950
     60 H21          0.7390     0.5870    -1.3300 h1         1 G4Q       0.041450
     61 H22          1.8970     1.3230    -2.4410 h1         1 G4Q       0.041450
     62 H23          2.4120     0.2650     0.3780 h1         1 G4Q       0.043950
     63 H24          2.9790    -0.3940    -1.1610 h1         1 G4Q       0.043950
     64 H25          6.3310     2.5330    -0.7110 ha         1 G4Q       0.114500
     65 H26          8.4550     1.5310    -0.1580 ha         1 G4Q       0.125500
     66 H27          4.3620    -1.1430     0.3220 ha         1 G4Q       0.114500
     67 H28          6.4840    -2.1480     0.8210 ha         1 G4Q       0.125500
     68 H29          9.6710    -0.2010     0.5520 hn         1 G4Q       0.146000
     69 H30         11.3620    -1.4790     0.7370 hc         1 G4Q       0.055700
     70 H31         10.9740    -2.0820     2.3290 hc         1 G4Q       0.055700
     71 H32         10.8490    -4.4280     1.4300 hc         1 G4Q       0.044033
     72 H33         11.2230    -3.8260    -0.1840 hc         1 G4Q       0.044033
     73 H34         12.4140    -3.6920     1.1040 hc         1 G4Q       0.044033
     74 H35        -10.6350    -0.4410     0.3310 hn         1 G4Q       0.329500
@<TRIPOS>BOND
     1     1     2 ar  
     2     1     6 ar  
     3     1    42 1   
     4     2     3 ar  
     5     2    43 1   
     6     3     4 ar  
     7     3    44 1   
     8     4     5 ar  
     9     4    45 1   
    10     5     6 ar  
    11     5    46 1   
    12     6     7 1   
    13     7     8 ar  
    14     7    17 2   
    15     8     9 ar  
    16     8    47 1   
    17     9    10 1   
    18     9    15 ar  
    19    10    11 2   
    20    10    12 1   
    21    12    13 1   
    22    12    74 1   
    23    13    14 2   
    24    13    48 1   
    25    14    15 1   
    26    14    49 1   
    27    15    16 ar  
    28    16    17 1   
    29    17    18 1   
    30    18    19 1   
    31    18    21 2   
    32    19    20 ar  
    33    19    50 1   
    34    20    23 ar  
    35    20    51 1   
    36    21    22 ar  
    37    21    52 1   
    38    22    23 ar  
    39    22    53 1   
    40    23    24 1   
    41    24    25 1   
    42    24    54 1   
    43    24    55 1   
    44    25    26 1   
    45    25    28 1   
    46    26    27 1   
    47    26    56 1   
    48    26    57 1   
    49    27    30 1   
    50    27    58 1   
    51    27    59 1   
    52    28    29 1   
    53    28    60 1   
    54    28    61 1   
    55    29    30 1   
    56    29    62 1   
    57    29    63 1   
    58    30    31 1   
    59    31    32 ar  
    60    31    34 ar  
    61    32    33 ar  
    62    32    64 1   
    63    33    36 ar  
    64    33    65 1   
    65    34    35 ar  
    66    34    66 1   
    67    35    36 ar  
    68    35    67 1   
    69    36    37 1   
    70    37    38 1   
    71    37    68 1   
    72    38    39 2   
    73    38    40 1   
    74    40    41 1   
    75    40    69 1   
    76    40    70 1   
    77    41    71 1   
    78    41    72 1   
    79    41    73 1   
@<TRIPOS>SUBSTRUCTURE
     1 G4Q         1 TEMP              0 ****  ****    0 ROOT
