@<TRIPOS>MOLECULE
G4Q
   74    79     1     0     0
SMALL
No Charge or Current Charge


@<TRIPOS>ATOM
      1 CAL         -2.9410    -1.6060     1.0570 ca         1 G4Q      -0.094500
      2 CAM         -1.9840    -2.1840     1.9080 ca         1 G4Q      -0.111500
      3 CAN         -2.2700    -2.3570     3.2720 ca         1 G4Q      -0.104000
      4 CAO         -3.5140    -1.9520     3.7830 ca         1 G4Q      -0.111500
      5 CAP         -4.4700    -1.3730     2.9300 ca         1 G4Q      -0.094500
      6 CAK         -4.2010    -1.1850     1.5510 cp         1 G4Q      -0.037000
      7 CAH         -5.2170    -0.5660     0.6410 cp         1 G4Q      -0.100000
      8 CAG         -6.5520    -1.0060     0.7550 ca         1 G4Q      -0.006000
      9 CAD         -7.4800    -0.5550    -0.1960 ca         1 G4Q      -0.223600
     10 CAC         -8.9160    -0.9730    -0.1650 c          1 G4Q       0.577600
     11 OBO         -9.3730    -1.7010     0.7030 o          1 G4Q      -0.549000
     12 NAB         -9.7140    -0.4880    -1.1780 ns         1 G4Q      -0.385100
     13 CAA         -9.3030     0.3370    -2.2150 cc         1 G4Q      -0.036400
     14 CAF         -7.9820     0.7180    -2.2480 cd         1 G4Q      -0.369800
     15 CAE         -7.0400     0.2770    -1.2300 ca         1 G4Q       0.460800
     16 NAJ         -5.7750     0.7110    -1.3690 nb         1 G4Q      -0.684000
     17 CAI         -4.8520     0.3790    -0.4420 cq         1 G4Q       0.460500
     18 CAQ         -3.5570     1.1540    -0.5240 cq         1 G4Q      -0.157500
     19 CAV         -3.0010     1.5050    -1.7760 ca         1 G4Q      -0.078500
     20 CAU         -1.7910     2.2160    -1.8500 ca         1 G4Q      -0.108500
     21 CAR         -2.8780     1.5560     0.6490 ca         1 G4Q      -0.078500
     22 CAS         -1.6700     2.2670     0.5700 ca         1 G4Q      -0.108500
     23 CAT         -1.1140     2.5990    -0.6780 ca         1 G4Q      -0.075300
     24 CAW          0.2070     3.3610    -0.7540 c3         1 G4Q       0.214100
     25 NAX          1.3570     2.6040    -0.2040 n3         1 G4Q      -0.721600
     26 CBC          2.6110     3.4160    -0.1670 c6         1 G4Q       0.160300
     27 CBB          3.8170     2.6450     0.4640 c6         1 G4Q       0.196300
     28 CAY          1.6130     1.3160    -0.9230 c6         1 G4Q       0.160300
     29 CAZ          2.8000     0.5020    -0.3090 c6         1 G4Q       0.196300
     30 NBA          4.0540     1.3130    -0.1820 nh         1 G4Q      -0.785400
     31 CBD          5.3240     0.6910    -0.0870 ca         1 G4Q       0.268000
     32 CBI          6.4780     1.3860    -0.4940 ca         1 G4Q      -0.133000
     33 CBH          7.7470     0.7860    -0.4090 ca         1 G4Q      -0.120000
     34 CBE          5.4680    -0.6230     0.4030 ca         1 G4Q      -0.133000
     35 CBF          6.7360    -1.2260     0.4900 ca         1 G4Q      -0.120000
     36 CBG          7.8910    -0.5220     0.0860 ca         1 G4Q      -0.053000
     37 NBJ          9.2060    -1.0650     0.1410 ns         1 G4Q      -0.144000
     38 CBK          9.7050    -2.2700     0.6220 c          1 G4Q       0.603100
     39 OBM          9.0260    -3.1380     1.1610 o          1 G4Q      -0.586100
     40 CBL         11.2250    -2.4290     0.4660 c3         1 G4Q      -0.157400
     41 CBN         11.5850    -3.4450    -0.6410 c3         1 G4Q      -0.079100
     42 H1          -2.7050    -1.4880     0.0020 ha         1 G4Q       0.117500
     43 H2          -1.0220    -2.4990     1.5100 ha         1 G4Q       0.114500
     44 H3          -1.5290    -2.8040     3.9320 ha         1 G4Q       0.114000
     45 H4          -3.7360    -2.0830     4.8390 ha         1 G4Q       0.114500
     46 H5          -5.4220    -1.0540     3.3470 ha         1 G4Q       0.117500
     47 H6          -6.8480    -1.7080     1.5330 ha         1 G4Q       0.144000
     48 H7         -10.0860     0.6100    -2.9210 h4         1 G4Q       0.201000
     49 H8          -7.6290     1.3630    -3.0460 ha         1 G4Q       0.216000
     50 H10         -3.4950     1.2180    -2.7020 ha         1 G4Q       0.123500
     51 H11         -1.3760     2.4650    -2.8240 ha         1 G4Q       0.121500
     52 H12         -3.2830     1.3290     1.6330 ha         1 G4Q       0.123500
     53 H13         -1.1570     2.5600     1.4840 ha         1 G4Q       0.121500
     54 H14          0.4050     3.6360    -1.8000 h1         1 G4Q       0.040700
     55 H15          0.0850     4.3010    -0.1990 h1         1 G4Q       0.040700
     56 H17          2.8910     3.7210    -1.1860 h1         1 G4Q       0.041450
     57 H18          2.4500     4.3380     0.4100 h1         1 G4Q       0.041450
     58 H19          4.7090     3.2820     0.3860 h1         1 G4Q       0.043950
     59 H20          3.6180     2.5000     1.5360 h1         1 G4Q       0.043950
     60 H21          0.7180     0.6770    -0.9040 h1         1 G4Q       0.041450
     61 H22          1.8400     1.5150    -1.9810 h1         1 G4Q       0.041450
     62 H23          2.4950     0.1340     0.6810 h1         1 G4Q       0.043950
     63 H24          2.9780    -0.3760    -0.9460 h1         1 G4Q       0.043950
     64 H25          6.3910     2.3930    -0.8900 ha         1 G4Q       0.114500
     65 H26          8.6220     1.3460    -0.7330 ha         1 G4Q       0.125500
     66 H27          4.5990    -1.1840     0.7310 ha         1 G4Q       0.114500
     67 H28          6.7950    -2.2400     0.8730 ha         1 G4Q       0.125500
     68 H29          9.9130    -0.4580    -0.2530 hn         1 G4Q       0.146000
     69 H30         11.6820    -1.4660     0.2080 hc         1 G4Q       0.055700
     70 H31         11.6410    -2.7930     1.4130 hc         1 G4Q       0.055700
     71 H32         11.1720    -4.4350    -0.4110 hc         1 G4Q       0.044033
     72 H33         11.1870    -3.1210    -1.6100 hc         1 G4Q       0.044033
     73 H34         12.6730    -3.5430    -0.7330 hc         1 G4Q       0.044033
     74 H35        -10.6830    -0.7850    -1.1310 hn         1 G4Q       0.329500
@<TRIPOS>BOND
     1     1     2 ar  
     2     1     6 ar  
     3     1    42 1   
     4     2     3 ar  
     5     2    43 1   
     6     3     4 ar  
     7     3    44 1   
     8     4     5 ar  
     9     4    45 1   
    10     5     6 ar  
    11     5    46 1   
    12     6     7 1   
    13     7     8 ar  
    14     7    17 2   
    15     8     9 ar  
    16     8    47 1   
    17     9    10 1   
    18     9    15 ar  
    19    10    11 2   
    20    10    12 1   
    21    12    13 1   
    22    12    74 1   
    23    13    14 2   
    24    13    48 1   
    25    14    15 1   
    26    14    49 1   
    27    15    16 ar  
    28    16    17 1   
    29    17    18 1   
    30    18    19 1   
    31    18    21 2   
    32    19    20 ar  
    33    19    50 1   
    34    20    23 ar  
    35    20    51 1   
    36    21    22 ar  
    37    21    52 1   
    38    22    23 ar  
    39    22    53 1   
    40    23    24 1   
    41    24    25 1   
    42    24    54 1   
    43    24    55 1   
    44    25    26 1   
    45    25    28 1   
    46    26    27 1   
    47    26    56 1   
    48    26    57 1   
    49    27    30 1   
    50    27    58 1   
    51    27    59 1   
    52    28    29 1   
    53    28    60 1   
    54    28    61 1   
    55    29    30 1   
    56    29    62 1   
    57    29    63 1   
    58    30    31 1   
    59    31    32 ar  
    60    31    34 ar  
    61    32    33 ar  
    62    32    64 1   
    63    33    36 ar  
    64    33    65 1   
    65    34    35 ar  
    66    34    66 1   
    67    35    36 ar  
    68    35    67 1   
    69    36    37 1   
    70    37    38 1   
    71    37    68 1   
    72    38    39 2   
    73    38    40 1   
    74    40    41 1   
    75    40    69 1   
    76    40    70 1   
    77    41    71 1   
    78    41    72 1   
    79    41    73 1   
@<TRIPOS>SUBSTRUCTURE
     1 G4Q         1 TEMP              0 ****  ****    0 ROOT
