@<TRIPOS>MOLECULE
G4R
   76    79     1     0     0
SMALL
No Charge or Current Charge


@<TRIPOS>ATOM
      1 C1          18.5590    24.1300    18.8320 c2         1 G4R      -0.232000
      2 C10         29.1110    24.6740    22.1840 c3         1 G4R      -0.091600
      3 C11         27.2100    26.0740    23.0650 c3         1 G4R      -0.091600
      4 C12         28.7470    25.9780    19.4850 c6         1 G4R       0.172800
      5 C13         28.1030    25.8690    18.0750 c6         1 G4R      -0.091900
      6 C14         24.4640    27.0510    14.9910 ca         1 G4R      -0.203000
      7 C15         25.4160    27.5370    14.0620 ca         1 G4R      -0.143000
      8 C16         24.9970    28.0400    12.8090 ca         1 G4R       0.096100
      9 C17         27.3200    28.5460    12.1070 c3         1 G4R       0.144900
     10 C18         23.6210    28.0560    12.4870 ca         1 G4R       0.167100
     11 C19         21.8650    28.5860    10.8220 c3         1 G4R       0.157600
     12 C2          19.7620    24.7530    18.7540 ce         1 G4R      -0.304200
     13 C20         21.8240    29.1810     9.3980 c3         1 G4R      -0.075400
     14 C21         22.5760    28.3660     8.3180 c3         1 G4R       0.172800
     15 C22         22.4760    26.6210     6.5420 c5         1 G4R       0.158300
     16 C23         21.3810    25.6250     6.0950 c5         1 G4R      -0.079900
     17 C24         20.7440    25.1770     7.4460 c5         1 G4R      -0.079900
     18 C25         21.2960    26.1940     8.4870 c5         1 G4R       0.158300
     19 C26         22.6770    27.5710    13.4180 ca         1 G4R      -0.194000
     20 C27         23.0860    27.0700    14.6640 ca         1 G4R       0.099000
     21 C3          20.4300    25.1460    17.4770 c          1 G4R       0.615300
     22 C4          22.6280    26.1420    16.7130 ca         1 G4R       0.299900
     23 C5          24.8230    26.5370    16.2630 ca         1 G4R       0.433900
     24 C6          26.6070    26.2550    18.0750 c6         1 G4R       0.243500
     25 C7          26.4130    27.5310    18.9180 c6         1 G4R      -0.091900
     26 C8          26.8850    27.3130    20.3800 c6         1 G4R       0.172800
     27 N1          21.6930    25.6710    17.6530 ns         1 G4R      -0.318900
     28 N2          23.9000    26.0820    17.1250 nb         1 G4R      -0.338000
     29 N3          26.1500    26.4730    16.6860 nu         1 G4R      -0.922100
     30 N4          27.7300    26.0880    20.5750 n3         1 G4R      -0.727600
     31 N5          21.7770    27.3130     7.6430 n3         1 G4R      -0.724600
     32 N6          22.1690    26.6120    15.5390 nb         1 G4R      -0.219000
     33 O1          19.9020    24.9850    16.3850 o          1 G4R      -0.536100
     34 O3          23.2370    28.5530    11.2520 os         1 G4R      -0.329100
     35 H1          17.9790    23.8770    17.9420 ha         1 G4R       0.176500
     36 H2          18.1160    23.8540    19.7900 ha         1 G4R       0.176500
     37 H3          29.3930    24.5680    23.2380 hc         1 G4R       0.038367
     38 H4          28.5260    23.7920    21.8970 hc         1 G4R       0.038367
     39 H5          30.0440    24.6810    21.6090 hc         1 G4R       0.038367
     40 H6          27.6470    25.9020    24.0560 hc         1 G4R       0.038367
     41 H7          26.7530    27.0690    23.0910 hc         1 G4R       0.038367
     42 H8          26.4210    25.3290    22.9060 hc         1 G4R       0.038367
     43 H9          29.3910    25.0980    19.6120 h1         1 G4R       0.033950
     44 H10         29.4070    26.8590    19.5080 h1         1 G4R       0.033950
     45 H11         28.2070    24.8410    17.7030 hc         1 G4R       0.047200
     46 H12         28.6690    26.5060    17.3820 hc         1 G4R       0.047200
     47 H13         26.4710    27.5230    14.3130 ha         1 G4R       0.108000
     48 H14         27.8400    28.9670    11.2370 h1         1 G4R       0.038700
     49 H15         27.5630    29.1660    12.9790 h1         1 G4R       0.038700
     50 H16         27.7050    27.5320    12.2750 h1         1 G4R       0.038700
     51 H17         21.2700    29.2200    11.4910 h1         1 G4R       0.042200
     52 H18         21.4320    27.5790    10.8280 h1         1 G4R       0.042200
     53 H19         20.3160    24.9800    19.6650 ha         1 G4R       0.177000
     54 H20         22.2650    30.1840     9.4420 hc         1 G4R       0.059700
     55 H21         20.7810    29.3180     9.0890 hc         1 G4R       0.059700
     56 H22         23.4890    27.9360     8.7520 h1         1 G4R       0.038700
     57 H23         22.9070    29.0810     7.5520 h1         1 G4R       0.038700
     58 H25         22.7680    27.3030     5.7320 h1         1 G4R       0.035200
     59 H26         21.7920    24.7870     5.5220 hc         1 G4R       0.045700
     60 H27         20.6400    26.1230     5.4590 hc         1 G4R       0.045700
     61 H28         19.6500    25.2090     7.3940 hc         1 G4R       0.045700
     62 H29         21.0230    24.1510     7.7130 hc         1 G4R       0.045700
     63 H30         20.5130    26.5060     9.1910 h1         1 G4R       0.035200
     64 H31         22.1210    25.7520     9.0650 h1         1 G4R       0.035200
     65 H32         21.6160    27.5760    13.1920 ha         1 G4R       0.147000
     66 H33         26.0460    25.4320    18.5470 h1         1 G4R       0.098700
     67 H34         26.9830    28.3570    18.4720 hc         1 G4R       0.047200
     68 H35         25.3600    27.8430    18.9160 hc         1 G4R       0.047200
     69 H36         27.4260    28.2120    20.7110 h1         1 G4R       0.033950
     70 H37         25.9820    27.2400    21.0030 h1         1 G4R       0.033950
     71 H39         22.0220    25.6910    18.6080 hn         1 G4R       0.166000
     72 H40         26.8310    26.8060    16.0100 hn         1 G4R       0.486000
     73 O2          25.9010    28.5230    11.8740 os         1 G4R      -0.319100
     74 C9          28.2940    25.9730    21.9590 c3         1 G4R       0.190500
     75 H24         23.3760    26.0980     6.8980 h1         1 G4R       0.035200
     76 H38         28.9850    26.8110    22.1230 h1         1 G4R       0.016700
@<TRIPOS>BOND
     1     1    12 2   
     2     1    35 1   
     3     1    36 1   
     4     2    37 1   
     5     2    38 1   
     6     2    39 1   
     7     2    74 1   
     8     3    40 1   
     9     3    41 1   
    10     3    42 1   
    11     3    74 1   
    12     4     5 1   
    13     4    30 1   
    14     4    43 1   
    15     4    44 1   
    16     5    24 1   
    17     5    45 1   
    18     5    46 1   
    19     6     7 ar  
    20     6    20 ar  
    21     6    23 ar  
    22     7     8 ar  
    23     7    47 1   
    24     8    10 ar  
    25     8    73 1   
    26     9    48 1   
    27     9    49 1   
    28     9    50 1   
    29     9    73 1   
    30    10    19 ar  
    31    10    34 1   
    32    11    13 1   
    33    11    34 1   
    34    11    51 1   
    35    11    52 1   
    36    12    21 1   
    37    12    53 1   
    38    13    14 1   
    39    13    54 1   
    40    13    55 1   
    41    14    31 1   
    42    14    56 1   
    43    14    57 1   
    44    15    16 1   
    45    15    31 1   
    46    15    58 1   
    47    15    75 1   
    48    16    17 1   
    49    16    59 1   
    50    16    60 1   
    51    17    18 1   
    52    17    61 1   
    53    17    62 1   
    54    18    31 1   
    55    18    63 1   
    56    18    64 1   
    57    19    20 ar  
    58    19    65 1   
    59    20    32 ar  
    60    21    27 1   
    61    21    33 2   
    62    22    27 1   
    63    22    28 ar  
    64    22    32 ar  
    65    23    28 ar  
    66    23    29 1   
    67    24    25 1   
    68    24    29 1   
    69    24    66 1   
    70    25    26 1   
    71    25    67 1   
    72    25    68 1   
    73    26    30 1   
    74    26    69 1   
    75    26    70 1   
    76    27    71 1   
    77    29    72 1   
    78    30    74 1   
    79    74    76 1   
@<TRIPOS>SUBSTRUCTURE
     1 G4R         1 TEMP              0 ****  ****    0 ROOT
