@<TRIPOS>MOLECULE
G4R
   76    79     1     0     0
SMALL
bcc


@<TRIPOS>ATOM
      1 C1          18.6050    24.6980    19.1000 c2         1 G4R      -0.132000
      2 C10         29.0830    24.5740    21.8960 c3         1 G4R      -0.091600
      3 C11         27.2070    25.8410    22.8910 c3         1 G4R      -0.091600
      4 C12         28.6410    26.1910    19.4040 c6         1 G4R       0.172800
      5 C13         27.9940    25.8760    18.0530 c6         1 G4R      -0.091900
      6 C14         24.4670    27.0730    14.9650 ca         1 G4R      -0.333600
      7 C15         25.3750    27.5580    13.9990 ca         1 G4R      -0.161000
      8 C16         24.9330    28.0050    12.7820 ca         1 G4R       0.096100
      9 C17         27.1040    28.5440    12.0220 c3         1 G4R       0.121700
     10 C18         23.5350    27.9780    12.4860 ca         1 G4R       0.167100
     11 C19         21.8410    28.4360    10.8860 c3         1 G4R       0.134400
     12 C2          19.8980    24.9500    18.9290 ce         1 G4R      -0.254200
     13 C20         21.7420    29.0530     9.5050 c3         1 G4R      -0.075400
     14 C21         22.5090    28.3660     8.3750 c3         1 G4R       0.172800
     15 C22         22.4680    26.8100     6.5320 c5         1 G4R       0.158300
     16 C23         21.6850    25.5570     6.1610 c5         1 G4R      -0.079900
     17 C24         21.2230    24.9990     7.5210 c5         1 G4R      -0.079900
     18 C25         21.6000    26.0880     8.5350 c5         1 G4R       0.158300
     19 C26         22.6500    27.4910    13.4140 ca         1 G4R      -0.277300
     20 C27         23.0970    27.0290    14.6690 ca         1 G4R       0.492600
     21 C3          20.4220    25.4730    17.6370 c          1 G4R       0.682300
     22 C4          22.6340    26.1650    16.6950 ca         1 G4R       0.825900
     23 C5          24.8310    26.6150    16.2780 ca         1 G4R       0.762200
     24 C6          26.5250    26.3090    18.0420 c6         1 G4R       0.243500
     25 C7          26.3540    27.4990    18.9790 c6         1 G4R      -0.091900
     26 C8          26.6920    27.1020    20.4200 c6         1 G4R       0.172800
     27 N1          21.7760    25.6690    17.6690 ns         1 G4R      -0.552400
     28 N2          23.9080    26.1750    17.1140 nb         1 G4R      -0.864000
     29 N3          26.1070    26.6100    16.6860 nu         1 G4R      -0.866900
     30 N4          27.6700    26.0170    20.4720 n3         1 G4R      -0.727600
     31 N5          21.7980    27.2820     7.7310 n3         1 G4R      -0.724600
     32 N6          22.1710    26.5630    15.5480 nb         1 G4R      -0.745000
     33 O1          19.7100    25.6910    16.6790 o          1 G4R      -0.536100
     34 O3          23.2070    28.4520    11.2820 os         1 G4R      -0.305900
     35 H1          17.8820    24.8600    18.3110 ha         1 G4R       0.126500
     36 H2          18.2300    24.3210    20.0410 ha         1 G4R       0.126500
     37 H3          29.4930    24.4730    22.9010 hc         1 G4R       0.038367
     38 H4          28.4460    23.7090    21.7030 hc         1 G4R       0.038367
     39 H5          29.9250    24.5330    21.2070 hc         1 G4R       0.038367
     40 H6          27.6760    25.6310    23.8520 hc         1 G4R       0.038367
     41 H7          26.6760    26.7860    22.9920 hc         1 G4R       0.038367
     42 H8          26.4730    25.0550    22.6990 hc         1 G4R       0.038367
     43 H9          29.4870    25.5230    19.5480 h1         1 G4R       0.033950
     44 H10         29.0590    27.2110    19.4010 h1         1 G4R       0.033950
     45 H11         28.0650    24.8090    17.8360 hc         1 G4R       0.047200
     46 H12         28.5520    26.3970    17.2700 hc         1 G4R       0.047200
     47 H13         26.4350    27.5790    14.2120 ha         1 G4R       0.126000
     48 H14         27.5470    28.9440    11.1140 h1         1 G4R       0.038700
     49 H15         27.3550    29.2030    12.8580 h1         1 G4R       0.038700
     50 H16         27.5280    27.5540    12.2150 h1         1 G4R       0.038700
     51 H17         21.2420    29.0250    11.5890 h1         1 G4R       0.042200
     52 H18         21.4600    27.4120    10.9110 h1         1 G4R       0.042200
     53 H19         20.5980    24.7790    19.7390 ha         1 G4R       0.127000
     54 H20         22.0880    30.0870     9.5780 hc         1 G4R       0.059700
     55 H21         20.6830    29.1080     9.2380 hc         1 G4R       0.059700
     56 H22         23.5010    28.0410     8.7340 h1         1 G4R       0.038700
     57 H23         22.7000    29.1190     7.6070 h1         1 G4R       0.038700
     58 H25         22.4560    27.5750     5.7510 h1         1 G4R       0.035200
     59 H26         22.2890    24.8490     5.5950 hc         1 G4R       0.045700
     60 H27         20.8250    25.8200     5.5440 hc         1 G4R       0.045700
     61 H28         20.1490    24.8080     7.5240 hc         1 G4R       0.045700
     62 H29         21.7130    24.0570     7.7680 hc         1 G4R       0.045700
     63 H30         20.8250    26.2380     9.2870 h1         1 G4R       0.035200
     64 H31         22.5240    25.8050     9.0690 h1         1 G4R       0.035200
     65 H32         21.5870    27.4520    13.2180 ha         1 G4R       0.165000
     66 H33         25.9040    25.4870    18.4000 h1         1 G4R       0.098700
     67 H34         27.0020    28.3110    18.6360 hc         1 G4R       0.047200
     68 H35         25.3310    27.8760    18.9380 hc         1 G4R       0.047200
     69 H36         27.0500    27.9970    20.9560 h1         1 G4R       0.033950
     70 H37         25.7790    26.7800    20.9230 h1         1 G4R       0.033950
     71 H39         22.2540    25.4260    18.5240 hn         1 G4R       0.332500
     72 H40         26.7960    27.0530    16.1000 hn         1 G4R       0.430800
     73 O2          25.7110    28.4840    11.7980 os         1 G4R      -0.295900
     74 C9          28.2710    25.8640    21.7970 c3         1 G4R       0.190500
     75 H24         23.5250    26.5570     6.7260 h1         1 G4R       0.035200
     76 H38         28.9450    26.7150    22.0040 h1         1 G4R       0.016700
@<TRIPOS>BOND
     1     1    12 2   
     2     1    35 1   
     3     1    36 1   
     4     2    37 1   
     5     2    38 1   
     6     2    39 1   
     7     2    74 1   
     8     3    40 1   
     9     3    41 1   
    10     3    42 1   
    11     3    74 1   
    12     4     5 1   
    13     4    30 1   
    14     4    43 1   
    15     4    44 1   
    16     5    24 1   
    17     5    45 1   
    18     5    46 1   
    19     6     7 ar  
    20     6    20 ar  
    21     6    23 ar  
    22     7     8 ar  
    23     7    47 1   
    24     8    10 ar  
    25     8    73 1   
    26     9    48 1   
    27     9    49 1   
    28     9    50 1   
    29     9    73 1   
    30    10    19 ar  
    31    10    34 1   
    32    11    13 1   
    33    11    34 1   
    34    11    51 1   
    35    11    52 1   
    36    12    21 1   
    37    12    53 1   
    38    13    14 1   
    39    13    54 1   
    40    13    55 1   
    41    14    31 1   
    42    14    56 1   
    43    14    57 1   
    44    15    16 1   
    45    15    31 1   
    46    15    58 1   
    47    15    75 1   
    48    16    17 1   
    49    16    59 1   
    50    16    60 1   
    51    17    18 1   
    52    17    61 1   
    53    17    62 1   
    54    18    31 1   
    55    18    63 1   
    56    18    64 1   
    57    19    20 ar  
    58    19    65 1   
    59    20    32 ar  
    60    21    27 1   
    61    21    33 2   
    62    22    27 1   
    63    22    28 ar  
    64    22    32 ar  
    65    23    28 ar  
    66    23    29 1   
    67    24    25 1   
    68    24    29 1   
    69    24    66 1   
    70    25    26 1   
    71    25    67 1   
    72    25    68 1   
    73    26    30 1   
    74    26    69 1   
    75    26    70 1   
    76    27    71 1   
    77    29    72 1   
    78    30    74 1   
    79    74    76 1   
@<TRIPOS>SUBSTRUCTURE
     1 G4R         1 TEMP              0 ****  ****    0 ROOT
