@<TRIPOS>MOLECULE
G4S
   27    27     1     0     0
SMALL
No Charge or Current Charge


@<TRIPOS>ATOM
      1 C1          -1.5260    -0.5750    10.9600 c6         1 G4S       0.405300
      2 C2          -1.9720    -0.7510     9.4640 c6         1 G4S       0.122300
      3 C3          -2.1510     0.6550     8.8240 c6         1 G4S       0.131300
      4 C4          -3.1640     1.5180     9.6540 c6         1 G4S       0.161300
      5 C5          -2.6690     1.5440    11.1400 c6         1 G4S       0.186300
      6 C6          -3.6420     2.3310    12.0810 c3         1 G4S       0.161600
      7 O1          -1.4950    -1.8020    11.6610 oh         1 G4S      -0.688000
      8 O2          -1.0370    -1.5050     8.6550 oh         1 G4S      -0.730000
      9 O3          -2.5350     0.5070     7.4360 oh         1 G4S      -0.762000
     10 O4          -4.5070     0.9760     9.5660 os         1 G4S      -0.592700
     11 O5          -2.4940     0.2000    11.6670 os         1 G4S      -0.469000
     12 O6          -3.1720     2.4250    13.4450 oh         1 G4S      -0.731000
     13 S           -5.5780     1.6980     8.5580 s6         1 G4S       1.494300
     14 O7          -6.7870     0.8720     8.6670 o          1 G4S      -0.700867
     15 O8          -4.8920     1.6190     7.2610 o          1 G4S      -0.700867
     16 O9          -5.7100     3.0580     9.0940 o          1 G4S      -0.700867
     17 H1          -0.5430    -0.0840    11.0150 h2         1 G4S       0.007700
     18 H2          -2.9530    -1.2500     9.4670 h1         1 G4S       0.082700
     19 H3          -1.1770     1.1680     8.8710 h1         1 G4S       0.043700
     20 H4          -3.1490     2.5530     9.2790 h1         1 G4S       0.064700
     21 H5          -1.6950     2.0540    11.1730 h1         1 G4S       0.025700
     22 H61         -3.7790     3.3370    11.6600 h1         1 G4S       0.051200
     23 H62         -4.6210     1.8340    12.0520 h1         1 G4S       0.051200
     24 HO1         -2.0870    -1.6190    12.4210 ho         1 G4S       0.502000
     25 HO2         -1.2150    -1.1730     7.7390 ho         1 G4S       0.517000
     26 HO3         -3.4520     0.9160     7.3420 ho         1 G4S       0.573000
     27 HO6         -3.8890     2.8550    13.9680 ho         1 G4S       0.495000
@<TRIPOS>BOND
     1     1     2 1   
     2     1     7 1   
     3     1    11 1   
     4     1    17 1   
     5     2     3 1   
     6     2     8 1   
     7     2    18 1   
     8     3     4 1   
     9     3     9 1   
    10     3    19 1   
    11     4     5 1   
    12     4    10 1   
    13     4    20 1   
    14     5     6 1   
    15     5    11 1   
    16     5    21 1   
    17     6    12 1   
    18     6    22 1   
    19     6    23 1   
    20     7    24 1   
    21     8    25 1   
    22     9    26 1   
    23    10    13 1   
    24    12    27 1   
    25    13    14 1   
    26    13    15 1   
    27    13    16 1   
@<TRIPOS>SUBSTRUCTURE
     1 G4S         1 TEMP              0 ****  ****    0 ROOT
