@<TRIPOS>MOLECULE
G4S
   27    27     1     0     0
SMALL
abcg2


@<TRIPOS>ATOM
      1 C1          -1.7210    -0.5800    10.9510 c6         1 G4S       0.405300
      2 C2          -2.0540    -0.6780     9.4650 c6         1 G4S       0.122300
      3 C3          -2.1540     0.7330     8.8810 c6         1 G4S       0.131300
      4 C4          -3.1550     1.5670     9.6770 c6         1 G4S       0.161300
      5 C5          -2.7460     1.5390    11.1480 c6         1 G4S       0.186300
      6 C6          -3.7030     2.3180    12.0260 c3         1 G4S       0.161600
      7 O1          -1.7420    -1.8420    11.5050 oh         1 G4S      -0.688000
      8 O2          -1.0310    -1.4080     8.8350 oh         1 G4S      -0.730000
      9 O3          -2.3800     0.6900     7.4970 oh         1 G4S      -0.762000
     10 O4          -4.4690     1.0160     9.5820 os         1 G4S      -0.592700
     11 O5          -2.6860     0.2080    11.6100 os         1 G4S      -0.469000
     12 O6          -3.1500     2.4140    13.3160 oh         1 G4S      -0.731000
     13 S           -5.5610     1.7070     8.5690 s6         1 G4S       1.494300
     14 O7          -6.7490     0.9150     8.8510 o          1 G4S      -0.700867
     15 O8          -4.9990     1.5010     7.2190 o          1 G4S      -0.700867
     16 O9          -5.6390     3.1150     8.9510 o          1 G4S      -0.700867
     17 H1          -0.7290    -0.1040    11.0630 h2         1 G4S       0.007700
     18 H2          -3.0260    -1.1850     9.3600 h1         1 G4S       0.082700
     19 H3          -1.1760     1.2140     9.0260 h1         1 G4S       0.043700
     20 H4          -3.1340     2.6050     9.3260 h1         1 G4S       0.064700
     21 H5          -1.7540     2.0150    11.2150 h1         1 G4S       0.025700
     22 H61         -3.8490     3.3060    11.5700 h1         1 G4S       0.051200
     23 H62         -4.6800     1.8210    12.0390 h1         1 G4S       0.051200
     24 HO1         -1.2910    -1.8250    12.3560 ho         1 G4S       0.502000
     25 HO2         -1.1870    -1.3600     7.8860 ho         1 G4S       0.517000
     26 HO3         -3.3280     0.8190     7.3090 ho         1 G4S       0.573000
     27 HO6         -3.7960     2.8410    13.8860 ho         1 G4S       0.495000
@<TRIPOS>BOND
     1     1     2 1   
     2     1     7 1   
     3     1    11 1   
     4     1    17 1   
     5     2     3 1   
     6     2     8 1   
     7     2    18 1   
     8     3     4 1   
     9     3     9 1   
    10     3    19 1   
    11     4     5 1   
    12     4    10 1   
    13     4    20 1   
    14     5     6 1   
    15     5    11 1   
    16     5    21 1   
    17     6    12 1   
    18     6    22 1   
    19     6    23 1   
    20     7    24 1   
    21     8    25 1   
    22     9    26 1   
    23    10    13 1   
    24    12    27 1   
    25    13    14 1   
    26    13    15 1   
    27    13    16 1   
@<TRIPOS>SUBSTRUCTURE
     1 G4S         1 TEMP              0 ****  ****    0 ROOT
