@<TRIPOS>MOLECULE
G4T
   81    86     1     0     0
SMALL
No Charge or Current Charge


@<TRIPOS>ATOM
      1 CAK          6.7810    -1.5020    -3.1500 ca         1 G4T      -0.094500
      2 CAH          5.9960    -1.8980    -4.2470 ca         1 G4T      -0.112500
      3 CAG          4.6360    -2.1950    -4.0680 ca         1 G4T      -0.105000
      4 CAI          4.0610    -2.0980    -2.7910 ca         1 G4T      -0.112500
      5 CAL          4.8470    -1.7040    -1.6950 ca         1 G4T      -0.094500
      6 CBK          6.2210    -1.3930    -1.8520 cp         1 G4T      -0.036000
      7 CBN          7.0530    -0.9690    -0.6820 cp         1 G4T      -0.101000
      8 CAU          8.3310    -1.5490    -0.5430 ca         1 G4T      -0.005000
      9 CBR          9.0530    -1.2840     0.6300 ca         1 G4T      -0.224600
     10 CBP         10.4120    -1.8600     0.8750 c          1 G4T       0.577600
     11 OAD         10.9860    -2.5660     0.0600 o          1 G4T      -0.549000
     12 NBE         10.9970    -1.5500     2.0830 ns         1 G4T      -0.386100
     13 CAJ         10.4380    -0.7660     3.0820 cc         1 G4T      -0.035400
     14 CAS          9.1880    -0.2390     2.8600 cd         1 G4T      -0.369800
     15 CBQ          8.4680    -0.4890     1.6210 ca         1 G4T       0.461800
     16 NBA          7.2520     0.0770     1.5200 nb         1 G4T      -0.683000
     17 CBO          6.5400    -0.0750     0.3840 cq         1 G4T       0.459500
     18 CBL          5.3390     0.8340     0.2560 cq         1 G4T      -0.156500
     19 CAR          4.5440     1.1460     1.3830 ca         1 G4T      -0.079500
     20 CAN          3.4200     1.9810     1.2580 ca         1 G4T      -0.107000
     21 CAQ          4.9900     1.4010    -0.9910 ca         1 G4T      -0.079500
     22 CAM          3.8660     2.2360    -1.1100 ca         1 G4T      -0.107000
     23 CBH          3.0700     2.5280     0.0110 ca         1 G4T      -0.076300
     24 CAZ          1.8410     3.4240    -0.1190 c3         1 G4T       0.213100
     25 NBT          0.5590     2.6950     0.0460 n3         1 G4T      -0.722600
     26 CAY         -0.6060     3.6190     0.0950 c6         1 G4T       0.168800
     27 CAW         -1.9190     2.8580     0.3870 c6         1 G4T      -0.093900
     28 CAX          0.3640     1.6230    -0.9710 c6         1 G4T       0.168800
     29 CAV         -0.9280     0.8200    -0.7020 c6         1 G4T      -0.093900
     30 CBS         -2.1610     1.7510    -0.6650 c6         1 G4T       0.122700
     31 NBD         -3.3720     0.9840    -0.3490 ns         1 G4T      -0.516900
     32 CBG         -4.6580     1.3620    -0.6570 c          1 G4T       0.663100
     33 OAC         -4.9050     2.3970    -1.2580 o          1 G4T      -0.623100
     34 NBB         -5.5980     0.4470    -0.2130 ns         1 G4T      -0.163000
     35 CBJ         -7.0160     0.4160    -0.3000 ca         1 G4T       0.035000
     36 CAT         -7.6750    -0.6950     0.2610 ca         1 G4T      -0.202000
     37 CAP         -7.7820     1.4320    -0.9080 ca         1 G4T      -0.158000
     38 CAO         -9.1820     1.3330    -0.9490 ca         1 G4T      -0.048000
     39 CBI         -9.8290     0.2220    -0.3880 ca         1 G4T       0.028000
     40 Cl         -11.5910     0.1380    -0.4610 cl         1 G4T      -0.215000
     41 CBM         -9.0830    -0.8090     0.2210 ca         1 G4T       0.026000
     42 NBC         -9.7920    -1.9110     0.7770 ns         1 G4T      -0.154000
     43 CBF         -9.3780    -3.1080     1.3420 c          1 G4T       0.610100
     44 OAB         -8.2100    -3.4660     1.4330 o          1 G4T      -0.578100
     45 CAF        -10.5270    -4.0060     1.8240 c3         1 G4T      -0.159400
     46 CAA        -10.6240    -4.0360     3.3660 c3         1 G4T      -0.077100
     47 H1           7.8300    -1.2630    -3.3110 ha         1 G4T       0.117500
     48 H2           6.4430    -1.9710    -5.2370 ha         1 G4T       0.114000
     49 H3           4.0280    -2.5000    -4.9180 ha         1 G4T       0.114000
     50 H4           3.0080    -2.3300    -2.6490 ha         1 G4T       0.114000
     51 H5           4.3870    -1.6420    -0.7110 ha         1 G4T       0.117500
     52 H6           8.7310    -2.2180    -1.3030 ha         1 G4T       0.144000
     53 H7          11.0600    -0.6410     3.9670 h4         1 G4T       0.202000
     54 H8           8.7230     0.3780     3.6220 ha         1 G4T       0.216000
     55 H10          4.7800     0.7320     2.3610 ha         1 G4T       0.123500
     56 H11          2.8110     2.1970     2.1330 ha         1 G4T       0.120000
     57 H12          5.5890     1.2080    -1.8780 ha         1 G4T       0.123500
     58 H13          3.6130     2.6550    -2.0820 ha         1 G4T       0.120000
     59 H14          1.9190     4.2110     0.6430 h1         1 G4T       0.040700
     60 H15          1.8630     3.9270    -1.0950 h1         1 G4T       0.040700
     61 H17         -0.4580     4.3770     0.8780 h1         1 G4T       0.037450
     62 H18         -0.7070     4.1560    -0.8610 h1         1 G4T       0.037450
     63 H19         -1.8710     2.4190     1.3930 hc         1 G4T       0.054200
     64 H20         -2.7590     3.5650     0.3910 hc         1 G4T       0.054200
     65 H21          0.3150     2.0590    -1.9800 h1         1 G4T       0.037450
     66 H22          1.2120     0.9220    -0.9640 h1         1 G4T       0.037450
     67 H23         -1.0560     0.0580    -1.4820 hc         1 G4T       0.054200
     68 H24         -0.8300     0.2830     0.2520 hc         1 G4T       0.054200
     69 H25         -2.2840     2.2150    -1.6560 h1         1 G4T       0.078700
     70 H26         -3.2630     0.1100     0.1510 hn         1 G4T       0.306500
     71 H27         -5.2050    -0.3530     0.2630 hn         1 G4T       0.150000
     72 H28         -7.0700    -1.4620     0.7330 ha         1 G4T       0.142000
     73 H29         -7.3160     2.3060    -1.3520 ha         1 G4T       0.157000
     74 H30         -9.7680     2.1200    -1.4180 ha         1 G4T       0.130000
     75 H31        -10.7970    -1.7920     0.7580 hn         1 G4T       0.161000
     76 H32        -11.4830    -3.6430     1.4280 hc         1 G4T       0.060200
     77 H33        -10.3460    -5.0290     1.4720 hc         1 G4T       0.060200
     78 H34         -9.6970    -4.4200     3.8080 hc         1 G4T       0.044367
     79 H35        -10.8060    -3.0300     3.7630 hc         1 G4T       0.044367
     80 H36        -11.4490    -4.6840     3.6860 hc         1 G4T       0.044367
     81 H37         11.9180    -1.9520     2.2210 hn         1 G4T       0.329500
@<TRIPOS>BOND
     1     1     2 ar  
     2     1     6 ar  
     3     1    47 1   
     4     2     3 ar  
     5     2    48 1   
     6     3     4 ar  
     7     3    49 1   
     8     4     5 ar  
     9     4    50 1   
    10     5     6 ar  
    11     5    51 1   
    12     6     7 1   
    13     7     8 ar  
    14     7    17 2   
    15     8     9 ar  
    16     8    52 1   
    17     9    10 1   
    18     9    15 ar  
    19    10    11 2   
    20    10    12 1   
    21    12    13 1   
    22    12    81 1   
    23    13    14 2   
    24    13    53 1   
    25    14    15 1   
    26    14    54 1   
    27    15    16 ar  
    28    16    17 1   
    29    17    18 1   
    30    18    19 1   
    31    18    21 2   
    32    19    20 ar  
    33    19    55 1   
    34    20    23 ar  
    35    20    56 1   
    36    21    22 ar  
    37    21    57 1   
    38    22    23 ar  
    39    22    58 1   
    40    23    24 1   
    41    24    25 1   
    42    24    59 1   
    43    24    60 1   
    44    25    26 1   
    45    25    28 1   
    46    26    27 1   
    47    26    61 1   
    48    26    62 1   
    49    27    30 1   
    50    27    63 1   
    51    27    64 1   
    52    28    29 1   
    53    28    65 1   
    54    28    66 1   
    55    29    30 1   
    56    29    67 1   
    57    29    68 1   
    58    30    31 1   
    59    30    69 1   
    60    31    32 1   
    61    31    70 1   
    62    32    33 2   
    63    32    34 1   
    64    34    35 1   
    65    34    71 1   
    66    35    36 ar  
    67    35    37 ar  
    68    36    41 ar  
    69    36    72 1   
    70    37    38 ar  
    71    37    73 1   
    72    38    39 ar  
    73    38    74 1   
    74    39    40 1   
    75    39    41 ar  
    76    41    42 1   
    77    42    43 1   
    78    42    75 1   
    79    43    44 2   
    80    43    45 1   
    81    45    46 1   
    82    45    76 1   
    83    45    77 1   
    84    46    78 1   
    85    46    79 1   
    86    46    80 1   
@<TRIPOS>SUBSTRUCTURE
     1 G4T         1 TEMP              0 ****  ****    0 ROOT
