@<TRIPOS>MOLECULE
G4T
   81    86     1     0     0
SMALL
bcc


@<TRIPOS>ATOM
      1 CAK          6.8520    -1.0680    -3.1050 ca         1 G4T      -0.112500
      2 CAH          6.1950    -1.3130    -4.3030 ca         1 G4T      -0.130500
      3 CAG          4.8410    -1.6180    -4.3060 ca         1 G4T      -0.123000
      4 CAI          4.1490    -1.6780    -3.1020 ca         1 G4T      -0.130500
      5 CAL          4.8040    -1.4310    -1.9060 ca         1 G4T      -0.112500
      6 CBK          6.1640    -1.1190    -1.8950 cp         1 G4T      -0.036000
      7 CBN          6.8800    -0.8880    -0.6220 cp         1 G4T      -0.166300
      8 CAU          8.0280    -1.6020    -0.3450 ca         1 G4T      -0.023000
      9 CBR          8.6710    -1.4540     0.8810 ca         1 G4T      -0.289900
     10 CBP          9.8810    -2.2170     1.1810 c          1 G4T       0.720100
     11 OAD         10.4220    -2.9890     0.4030 o          1 G4T      -0.624500
     12 NBE         10.3810    -2.0000     2.4390 ns         1 G4T      -0.453100
     13 CAJ          9.8370    -1.1580     3.3640 cc         1 G4T       0.014600
     14 CAS          8.7260    -0.4420     3.1060 cd         1 G4T      -0.319800
     15 CBQ          8.1080    -0.5790     1.8240 ca         1 G4T       0.527100
     16 NBA          7.0110     0.1360     1.5480 nb         1 G4T      -0.683000
     17 CBO          6.4240     0.0140     0.3720 cq         1 G4T       0.524800
     18 CBL          5.2480     0.8850     0.1530 cq         1 G4T      -0.156500
     19 CAR          4.2670     0.9890     1.1390 ca         1 G4T      -0.097500
     20 CAN          3.1500     1.7820     0.9400 ca         1 G4T      -0.125000
     21 CAQ          5.1050     1.6280    -1.0140 ca         1 G4T      -0.097500
     22 CAM          3.9940     2.4370    -1.2000 ca         1 G4T      -0.125000
     23 CBH          2.9970     2.5140    -0.2360 ca         1 G4T      -0.076300
     24 CAZ          1.7740     3.3660    -0.4500 c3         1 G4T       0.213100
     25 NBT          0.5480     2.6320    -0.2090 n3         1 G4T      -0.722600
     26 CAY         -0.6030     3.5170    -0.1910 c6         1 G4T       0.168800
     27 CAW         -1.8690     2.7630     0.1860 c6         1 G4T      -0.093900
     28 CAX          0.3650     1.5510    -1.1620 c6         1 G4T       0.168800
     29 CAV         -0.8630     0.7200    -0.8270 c6         1 G4T      -0.093900
     30 CBS         -2.1080     1.5950    -0.7670 c6         1 G4T       0.122700
     31 NBD         -3.2520     0.7910    -0.3910 ns         1 G4T      -0.583900
     32 CBG         -4.5230     1.1350    -0.7070 c          1 G4T       0.797100
     33 OAC         -4.8010     2.0810    -1.4290 o          1 G4T      -0.623100
     34 NBB         -5.4650     0.2990    -0.1510 ns         1 G4T      -0.489100
     35 CBJ         -6.8480     0.3450    -0.2730 ca         1 G4T       0.127600
     36 CAT         -7.5480    -0.6920     0.3500 ca         1 G4T      -0.220000
     37 CAP         -7.5550     1.3350    -0.9560 ca         1 G4T      -0.176000
     38 CAO         -8.9370     1.2610    -1.0040 ca         1 G4T      -0.066000
     39 CBI         -9.6250     0.2390    -0.3820 ca         1 G4T      -0.063600
     40 CL         -11.3600     0.2080    -0.4730 cl         1 G4T      -0.123400
     41 CBM         -8.9370    -0.7610     0.3170 ca         1 G4T       0.118600
     42 NBC         -9.6630    -1.7860     0.9160 ns         1 G4T      -0.480100
     43 CBF         -9.2780    -2.6360     1.9140 c          1 G4T       0.677100
     44 OAB         -8.1790    -2.6160     2.4310 o          1 G4T      -0.578100
     45 CAF        -10.3560    -3.6240     2.3030 c3         1 G4T      -0.159400
     46 CAA        -10.0580    -4.3650     3.5930 c3         1 G4T      -0.077100
     47 H1           7.9060    -0.8190    -3.1150 ha         1 G4T       0.135500
     48 H2           6.7430    -1.2610    -5.2350 ha         1 G4T       0.132000
     49 H3           4.3270    -1.8090    -5.2390 ha         1 G4T       0.132000
     50 H4           3.0940    -1.9210    -3.0930 ha         1 G4T       0.132000
     51 H5           4.2540    -1.4880    -0.9750 ha         1 G4T       0.135500
     52 H6           8.4180    -2.3060    -1.0690 ha         1 G4T       0.162000
     53 H7          10.3600    -1.1100     4.3070 h4         1 G4T       0.152000
     54 H8           8.3080     0.2230     3.8470 ha         1 G4T       0.166000
     55 H10          4.3690     0.4250     2.0580 ha         1 G4T       0.141500
     56 H11          2.3790     1.8230     1.6990 ha         1 G4T       0.138000
     57 H12          5.8610     1.5810    -1.7870 ha         1 G4T       0.141500
     58 H13          3.9010     3.0070    -2.1170 ha         1 G4T       0.138000
     59 H14          1.8010     4.2100     0.2460 h1         1 G4T       0.040700
     60 H15          1.8050     3.8020    -1.4630 h1         1 G4T       0.040700
     61 H17         -0.4230     4.3110     0.5370 h1         1 G4T       0.037450
     62 H18         -0.7490     4.0110    -1.1680 h1         1 G4T       0.037450
     63 H19         -1.7800     2.3840     1.2080 hc         1 G4T       0.054200
     64 H20         -2.7200     3.4470     0.1630 hc         1 G4T       0.054200
     65 H21          0.2780     1.9380    -2.1930 h1         1 G4T       0.037450
     66 H22          1.2460     0.9080    -1.1440 h1         1 G4T       0.037450
     67 H23         -0.9860    -0.0620    -1.5790 hc         1 G4T       0.054200
     68 H24         -0.7080     0.2260     0.1380 hc         1 G4T       0.054200
     69 H25         -2.2950     1.9920    -1.7680 h1         1 G4T       0.078700
     70 H26         -3.0960     0.0890     0.3160 hn         1 G4T       0.306500
     71 H27         -5.1190    -0.4790     0.3890 hn         1 G4T       0.316500
     72 H28         -6.9940    -1.4620     0.8630 ha         1 G4T       0.160000
     73 H29         -7.0530     2.1510    -1.4460 ha         1 G4T       0.175000
     74 H30         -9.4870     2.0270    -1.5350 ha         1 G4T       0.148000
     75 H31        -10.6240    -1.8690     0.6190 hn         1 G4T       0.327500
     76 H32        -11.3160    -3.1060     2.3730 hc         1 G4T       0.060200
     77 H33        -10.4640    -4.3330     1.4760 hc         1 G4T       0.060200
     78 H34         -9.1290    -4.9300     3.5290 hc         1 G4T       0.044367
     79 H35         -9.9820    -3.6840     4.4410 hc         1 G4T       0.044367
     80 H36        -10.8600    -5.0710     3.8060 hc         1 G4T       0.044367
     81 H37         11.2190    -2.5060     2.6880 hn         1 G4T       0.329500
@<TRIPOS>BOND
     1     1     2 ar  
     2     1     6 ar  
     3     1    47 1   
     4     2     3 ar  
     5     2    48 1   
     6     3     4 ar  
     7     3    49 1   
     8     4     5 ar  
     9     4    50 1   
    10     5     6 ar  
    11     5    51 1   
    12     6     7 1   
    13     7     8 ar  
    14     7    17 2   
    15     8     9 ar  
    16     8    52 1   
    17     9    10 1   
    18     9    15 ar  
    19    10    11 2   
    20    10    12 1   
    21    12    13 1   
    22    12    81 1   
    23    13    14 2   
    24    13    53 1   
    25    14    15 1   
    26    14    54 1   
    27    15    16 ar  
    28    16    17 1   
    29    17    18 1   
    30    18    19 1   
    31    18    21 2   
    32    19    20 ar  
    33    19    55 1   
    34    20    23 ar  
    35    20    56 1   
    36    21    22 ar  
    37    21    57 1   
    38    22    23 ar  
    39    22    58 1   
    40    23    24 1   
    41    24    25 1   
    42    24    59 1   
    43    24    60 1   
    44    25    26 1   
    45    25    28 1   
    46    26    27 1   
    47    26    61 1   
    48    26    62 1   
    49    27    30 1   
    50    27    63 1   
    51    27    64 1   
    52    28    29 1   
    53    28    65 1   
    54    28    66 1   
    55    29    30 1   
    56    29    67 1   
    57    29    68 1   
    58    30    31 1   
    59    30    69 1   
    60    31    32 1   
    61    31    70 1   
    62    32    33 2   
    63    32    34 1   
    64    34    35 1   
    65    34    71 1   
    66    35    36 ar  
    67    35    37 ar  
    68    36    41 ar  
    69    36    72 1   
    70    37    38 ar  
    71    37    73 1   
    72    38    39 ar  
    73    38    74 1   
    74    39    40 1   
    75    39    41 ar  
    76    41    42 1   
    77    42    43 1   
    78    42    75 1   
    79    43    44 2   
    80    43    45 1   
    81    45    46 1   
    82    45    76 1   
    83    45    77 1   
    84    46    78 1   
    85    46    79 1   
    86    46    80 1   
@<TRIPOS>SUBSTRUCTURE
     1 G4T         1 TEMP              0 ****  ****    0 ROOT
