@<TRIPOS>MOLECULE
G4U
   43    42     1     0     0
SMALL
bcc


@<TRIPOS>ATOM
      1 C1          -1.8950   -22.1060    -3.5200 cs         1 G4U       0.280200
      2 C2          -2.4120   -23.4580    -3.8430 c3         1 G4U      -0.144400
      3 C3          -1.2860   -24.4990    -3.8590 c3         1 G4U      -0.070400
      4 C4          -1.8140   -25.9030    -4.1270 c3         1 G4U      -0.075400
      5 C5          -0.7030   -26.9450    -4.1680 c3         1 G4U      -0.073400
      6 C6          -1.1920   -28.3780    -4.3620 c3         1 G4U      -0.074400
      7 C7          -1.9260   -28.6090    -5.6800 c3         1 G4U      -0.076400
      8 C8          -2.2860   -30.0740    -5.9330 c3         1 G4U      -0.072400
      9 C9          -1.1120   -31.0120    -6.2360 c3         1 G4U      -0.072400
     10 C10         -0.7420   -31.1420    -7.7120 c3         1 G4U      -0.074400
     11 C11         -0.2360   -29.8650    -8.3790 c3         1 G4U      -0.072400
     12 C12          0.3260   -30.0780    -9.7920 c3         1 G4U      -0.073400
     13 C13          1.8380   -30.2840    -9.8610 c3         1 G4U      -0.074400
     14 C14          2.3630   -31.5020    -9.1130 c3         1 G4U      -0.088100
     15 S2          -2.0030   -20.7960    -4.4580 s          1 G4U      -0.340400
     16 H1          -1.3900   -22.0330    -2.5550 h4         1 G4U       0.030200
     17 H2          -2.9440   -23.4480    -4.7950 hc         1 G4U       0.069200
     18 H3          -3.1300   -23.7330    -3.0600 hc         1 G4U       0.069200
     19 H4          -0.7540   -24.4790    -2.9030 hc         1 G4U       0.044200
     20 H5          -0.5570   -24.2280    -4.6270 hc         1 G4U       0.044200
     21 H6          -2.5390   -26.1710    -3.3510 hc         1 G4U       0.041200
     22 H7          -2.3640   -25.9000    -5.0720 hc         1 G4U       0.041200
     23 H8          -0.1280   -26.8880    -3.2380 hc         1 G4U       0.038200
     24 H9          -0.0020   -26.6950    -4.9720 hc         1 G4U       0.038200
     25 H10         -1.8490   -28.6570    -3.5310 hc         1 G4U       0.038700
     26 H11         -0.3280   -29.0470    -4.3010 hc         1 G4U       0.038700
     27 H12         -1.3210   -28.2160    -6.5020 hc         1 G4U       0.038700
     28 H13         -2.8500   -28.0230    -5.6840 hc         1 G4U       0.038700
     29 H14         -3.0040   -30.1340    -6.7570 hc         1 G4U       0.036700
     30 H15         -2.8200   -30.4430    -5.0510 hc         1 G4U       0.036700
     31 H16         -1.3600   -32.0120    -5.8690 hc         1 G4U       0.037200
     32 H17         -0.2260   -30.7070    -5.6690 hc         1 G4U       0.037200
     33 H18         -1.6120   -31.5050    -8.2700 hc         1 G4U       0.036200
     34 H19          0.0150   -31.9260    -7.8060 hc         1 G4U       0.036200
     35 H20          0.5280   -29.3950    -7.7480 hc         1 G4U       0.037200
     36 H21         -1.0570   -29.1460    -8.4310 hc         1 G4U       0.037200
     37 H22          0.0810   -29.2110   -10.4110 hc         1 G4U       0.036700
     38 H23         -0.1800   -30.9290   -10.2610 hc         1 G4U       0.036700
     39 H24          2.1300   -30.3600   -10.9130 hc         1 G4U       0.034700
     40 H25          2.3340   -29.3860    -9.4780 hc         1 G4U       0.034700
     41 H26          3.4370   -31.6200    -9.2660 hc         1 G4U       0.031033
     42 H27          2.1960   -31.4220    -8.0380 hc         1 G4U       0.031033
     43 H28          1.8780   -32.4180    -9.4560 hc         1 G4U       0.031033
@<TRIPOS>BOND
     1     1     2 1   
     2     1    15 2   
     3     1    16 1   
     4     2     3 1   
     5     2    17 1   
     6     2    18 1   
     7     3     4 1   
     8     3    19 1   
     9     3    20 1   
    10     4     5 1   
    11     4    21 1   
    12     4    22 1   
    13     5     6 1   
    14     5    23 1   
    15     5    24 1   
    16     6     7 1   
    17     6    25 1   
    18     6    26 1   
    19     7     8 1   
    20     7    27 1   
    21     7    28 1   
    22     8     9 1   
    23     8    29 1   
    24     8    30 1   
    25     9    10 1   
    26     9    31 1   
    27     9    32 1   
    28    10    11 1   
    29    10    33 1   
    30    10    34 1   
    31    11    12 1   
    32    11    35 1   
    33    11    36 1   
    34    12    13 1   
    35    12    37 1   
    36    12    38 1   
    37    13    14 1   
    38    13    39 1   
    39    13    40 1   
    40    14    41 1   
    41    14    42 1   
    42    14    43 1   
@<TRIPOS>SUBSTRUCTURE
     1 G4U         1 TEMP              0 ****  ****    0 ROOT
