@<TRIPOS>MOLECULE
G4U
   43    42     1     0     0
SMALL
No Charge or Current Charge


@<TRIPOS>ATOM
      1 C1          -2.0870   -21.9760    -3.2550 cs         1 G4U       0.280200
      2 C2          -2.5500   -23.3950    -3.5340 c3         1 G4U      -0.144400
      3 C3          -1.3740   -24.3680    -3.7690 c3         1 G4U      -0.070400
      4 C4          -1.8340   -25.8150    -4.0470 c3         1 G4U      -0.075400
      5 C5          -0.6530   -26.7860    -4.2860 c3         1 G4U      -0.073400
      6 C6          -1.0650   -28.2660    -4.4760 c3         1 G4U      -0.074400
      7 C7          -1.8870   -28.5430    -5.7610 c3         1 G4U      -0.076400
      8 C8          -2.2860   -30.0300    -5.9610 c3         1 G4U      -0.072400
      9 C9          -1.1330   -31.0270    -6.2660 c3         1 G4U      -0.072400
     10 C10         -0.7550   -31.2000    -7.7600 c3         1 G4U      -0.074400
     11 C11         -0.1990   -29.9350    -8.4600 c3         1 G4U      -0.072400
     12 C12          0.4100   -30.1880    -9.8630 c3         1 G4U      -0.073400
     13 C13          1.9330   -30.4760    -9.8940 c3         1 G4U      -0.074400
     14 C14          2.3830   -31.7580    -9.1650 c3         1 G4U      -0.088100
     15 S2          -1.7720   -20.8550    -4.4600 s          1 G4U      -0.340400
     16 H1          -1.9490   -21.7190    -2.2010 h4         1 G4U       0.030200
     17 H2          -3.2080   -23.3950    -4.4110 hc         1 G4U       0.069200
     18 H3          -3.1520   -23.7460    -2.6870 hc         1 G4U       0.069200
     19 H4          -0.7180   -24.3590    -2.8880 hc         1 G4U       0.044200
     20 H5          -0.7750   -24.0110    -4.6170 hc         1 G4U       0.044200
     21 H6          -2.4290   -26.1740    -3.1980 hc         1 G4U       0.041200
     22 H7          -2.4920   -25.8120    -4.9240 hc         1 G4U       0.041200
     23 H8           0.0290   -26.7280    -3.4290 hc         1 G4U       0.038200
     24 H9          -0.0820   -26.4560    -5.1630 hc         1 G4U       0.038200
     25 H10         -1.6360   -28.5970    -3.6000 hc         1 G4U       0.038700
     26 H11         -0.1480   -28.8660    -4.4960 hc         1 G4U       0.038700
     27 H12         -1.3330   -28.1730    -6.6290 hc         1 G4U       0.038700
     28 H13         -2.8140   -27.9580    -5.7190 hc         1 G4U       0.038700
     29 H14         -3.0320   -30.0940    -6.7630 hc         1 G4U       0.036700
     30 H15         -2.7980   -30.3640    -5.0500 hc         1 G4U       0.036700
     31 H16         -1.4450   -32.0120    -5.8980 hc         1 G4U       0.037200
     32 H17         -0.2370   -30.7690    -5.6920 hc         1 G4U       0.037200
     33 H18         -1.6360   -31.5510    -8.3130 hc         1 G4U       0.036200
     34 H19         -0.0210   -32.0090    -7.8240 hc         1 G4U       0.036200
     35 H20          0.5450   -29.4460    -7.8190 hc         1 G4U       0.037200
     36 H21         -1.0260   -29.2270    -8.5840 hc         1 G4U       0.037200
     37 H22          0.2350   -29.2930   -10.4730 hc         1 G4U       0.036700
     38 H23         -0.1320   -31.0020   -10.3620 hc         1 G4U       0.036700
     39 H24          2.2460   -30.5500   -10.9420 hc         1 G4U       0.034700
     40 H25          2.4710   -29.6190    -9.4710 hc         1 G4U       0.034700
     41 H26          3.4450   -31.9490    -9.3560 hc         1 G4U       0.031033
     42 H27          2.2520   -31.6590    -8.0810 hc         1 G4U       0.031033
     43 H28          1.8110   -32.6270    -9.5130 hc         1 G4U       0.031033
@<TRIPOS>BOND
     1     1     2 1   
     2     1    15 2   
     3     1    16 1   
     4     2     3 1   
     5     2    17 1   
     6     2    18 1   
     7     3     4 1   
     8     3    19 1   
     9     3    20 1   
    10     4     5 1   
    11     4    21 1   
    12     4    22 1   
    13     5     6 1   
    14     5    23 1   
    15     5    24 1   
    16     6     7 1   
    17     6    25 1   
    18     6    26 1   
    19     7     8 1   
    20     7    27 1   
    21     7    28 1   
    22     8     9 1   
    23     8    29 1   
    24     8    30 1   
    25     9    10 1   
    26     9    31 1   
    27     9    32 1   
    28    10    11 1   
    29    10    33 1   
    30    10    34 1   
    31    11    12 1   
    32    11    35 1   
    33    11    36 1   
    34    12    13 1   
    35    12    37 1   
    36    12    38 1   
    37    13    14 1   
    38    13    39 1   
    39    13    40 1   
    40    14    41 1   
    41    14    42 1   
    42    14    43 1   
@<TRIPOS>SUBSTRUCTURE
     1 G4U         1 TEMP              0 ****  ****    0 ROOT
