@<TRIPOS>MOLECULE
G4V
   44    47     1     0     0
SMALL
abcg2


@<TRIPOS>ATOM
      1 N3           5.3720    -0.1890    -0.1060 na         1 G4V      -0.318400
      2 C4           4.7400    -1.4030    -0.0480 cc         1 G4V      -0.151100
      3 N2           4.6780     2.0910    -0.0310 nb         1 G4V      -0.188000
      4 C7           0.7360     0.6430     0.5930 cp         1 G4V      -0.144500
      5 C6           3.1860     0.1760     0.2040 ca         1 G4V      -0.175800
      6 C9          -1.5840     0.6560    -0.0830 ca         1 G4V       0.231000
      7 C8           3.3970    -1.2470     0.1390 cd         1 G4V      -0.110400
      8 C16         -0.4310    -3.4490    -1.8420 c3         1 G4V       0.148900
      9 C17          2.4170    -2.3760     0.1860 c3         1 G4V      -0.008200
     10 C2          -0.8700    -0.6680     1.8130 ca         1 G4V      -0.098000
     11 C10         -1.8660    -0.2330     0.9580 ca         1 G4V       0.113100
     12 C15         -4.1470    -0.2400     0.3980 c6         1 G4V       0.386000
     13 O1          -3.1310    -0.7040     1.1820 os         1 G4V      -0.374100
     14 C5           3.5840     2.8220     0.0770 ca         1 G4V       0.136900
     15 C1           0.4290    -0.2280     1.6330 ca         1 G4V      -0.079000
     16 O2           0.5860    -3.4620    -0.8760 os         1 G4V      -0.456000
     17 N           -3.6120     2.5410    -2.3670 n2         1 G4V      -0.836100
     18 C14         -3.7160     0.0860    -1.0150 c6         1 G4V       0.150800
     19 N4          -2.6300     1.0280    -0.9250 nh         1 G4V      -0.783400
     20 C3          -0.2730     1.0870    -0.2530 ca         1 G4V      -0.085000
     21 F1          -5.0980    -1.1880     0.4170 f          1 G4V      -0.098000
     22 N1           2.3400     2.3850     0.2610 nb         1 G4V      -0.204000
     23 C12          4.4520     0.7880     0.0250 ca         1 G4V       0.124500
     24 C11          2.1260     1.0750     0.3520 cp         1 G4V       0.221500
     25 H1           6.3600    -0.0470    -0.2470 hn         1 G4V       0.368000
     26 H2           5.3050    -2.3160    -0.1550 h4         1 G4V       0.221000
     27 H3          -1.8690     2.9080    -1.2770 h5         1 G4V      -0.006200
     28 H4           0.8870    -1.4260    -1.0100 h1         1 G4V       0.026700
     29 H5           2.0230    -2.4080    -1.9350 h1         1 G4V       0.026700
     30 H6          -1.0530    -4.3310    -1.6910 h1         1 G4V       0.027700
     31 H7          -1.0670    -2.5580    -1.7560 h1         1 G4V       0.027700
     32 H8          -0.0340    -3.4770    -2.8640 h1         1 G4V       0.027700
     33 H9           2.9750    -3.3160     0.1820 hc         1 G4V       0.059200
     34 H10          1.8420    -2.3590     1.1140 hc         1 G4V       0.059200
     35 H11         -1.1180    -1.3400     2.6250 ha         1 G4V       0.141000
     36 H12          3.7100     3.8980     0.0170 h5         1 G4V       0.051100
     37 H13          1.2020    -0.5580     2.3140 ha         1 G4V       0.130000
     38 H14         -3.4860     3.4880    -2.7000 hn         1 G4V       0.401400
     39 H15         -3.4060    -0.8300    -1.5260 h1         1 G4V       0.099700
     40 H16         -4.5390     0.5290    -1.5730 h1         1 G4V       0.099700
     41 H17         -0.0230     1.7370    -1.0810 ha         1 G4V       0.131000
     42 C13         -2.6860     2.2450    -1.5560 c2         1 G4V       0.646100
     43 F2          -4.6850     0.8560     0.9850 f          1 G4V      -0.098000
     44 C18          1.4560    -2.3640    -0.9930 c3         1 G4V       0.157600
@<TRIPOS>BOND
     1     1     2 1   
     2     1    23 1   
     3     1    25 1   
     4     2     7 2   
     5     2    26 1   
     6     3    14 ar  
     7     3    23 ar  
     8     4    15 ar  
     9     4    20 ar  
    10     4    24 1   
    11     5     7 1   
    12     5    23 ar  
    13     5    24 ar  
    14     6    11 ar  
    15     6    19 1   
    16     6    20 ar  
    17     7     9 1   
    18     8    16 1   
    19     8    30 1   
    20     8    31 1   
    21     8    32 1   
    22     9    33 1   
    23     9    34 1   
    24     9    44 1   
    25    10    11 ar  
    26    10    15 ar  
    27    10    35 1   
    28    11    13 1   
    29    12    13 1   
    30    12    18 1   
    31    12    21 1   
    32    12    43 1   
    33    14    22 ar  
    34    14    36 1   
    35    15    37 1   
    36    16    44 1   
    37    17    38 1   
    38    17    42 2   
    39    18    19 1   
    40    18    39 1   
    41    18    40 1   
    42    19    42 1   
    43    20    41 1   
    44    22    24 ar  
    45    27    42 1   
    46    28    44 1   
    47    29    44 1   
@<TRIPOS>SUBSTRUCTURE
     1 G4V         1 TEMP              0 ****  ****    0 ROOT
