@<TRIPOS>MOLECULE
G4V
   44    47     1     0     0
SMALL
No Charge or Current Charge


@<TRIPOS>ATOM
      1 N3           5.4180    -0.1900    -0.2030 na         1 G4V      -0.318400
      2 C4           4.7630    -1.4330    -0.2970 cc         1 G4V      -0.151100
      3 N2           4.7440     2.1390     0.2810 nb         1 G4V      -0.188000
      4 C7           0.7880     0.6130     0.8180 cp         1 G4V      -0.144500
      5 C6           3.2810     0.2610     0.2680 ca         1 G4V      -0.175800
      6 C9          -1.5580     0.4580     0.0380 ca         1 G4V       0.231000
      7 C8           3.4350    -1.1600    -0.0120 cd         1 G4V      -0.110400
      8 C16         -0.7680    -2.7620    -2.0370 c3         1 G4V       0.148900
      9 C17          2.3410    -2.2020    -0.0390 c3         1 G4V      -0.008200
     10 C2          -0.8490    -0.6430     2.1240 ca         1 G4V      -0.098000
     11 C10         -1.8490    -0.3420     1.1860 ca         1 G4V       0.113100
     12 C15         -4.2230    -0.3010     0.7040 c6         1 G4V       0.386000
     13 O1          -3.1060    -0.8730     1.4090 os         1 G4V      -0.374100
     14 C5           3.6520     2.8780     0.5850 ca         1 G4V       0.136900
     15 C1           0.4560    -0.1630     1.9480 ca         1 G4V      -0.079000
     16 O2           0.2640    -2.9040    -1.0480 os         1 G4V      -0.456000
     17 N           -2.9970     1.2590    -3.1420 n2         1 G4V      -0.836100
     18 C14         -3.9030     0.0410    -0.7770 c6         1 G4V       0.150800
     19 N4          -2.5690     0.7190    -0.9450 nh         1 G4V      -0.783400
     20 C3          -0.2300     0.9260    -0.1150 ca         1 G4V      -0.085000
     21 F1          -5.3050    -1.1960     0.7690 f          1 G4V      -0.098000
     22 N1           2.3890     2.4210     0.7490 nb         1 G4V      -0.204000
     23 C12          4.5330     0.8200     0.1220 ca         1 G4V       0.124500
     24 C11          2.1820     1.0940     0.6080 cp         1 G4V       0.221500
     25 H1           6.4110    -0.0400    -0.3590 hn         1 G4V       0.368000
     26 H2           5.2660    -2.3610    -0.5570 h4         1 G4V       0.221000
     27 H3          -1.5990     2.2870    -1.9840 h5         1 G4V      -0.006200
     28 H4           1.0920    -1.0070    -1.3530 h1         1 G4V       0.026700
     29 H5           1.9430    -2.3310    -2.1710 h1         1 G4V       0.026700
     30 H6          -1.6040    -3.4370    -1.8160 h1         1 G4V       0.027700
     31 H7          -1.1550    -1.7340    -2.0520 h1         1 G4V       0.027700
     32 H8          -0.3870    -3.0040    -3.0380 h1         1 G4V       0.027700
     33 H9           2.7810    -3.2060    -0.0650 hc         1 G4V       0.059200
     34 H10          1.7570    -2.1600     0.8840 hc         1 G4V       0.059200
     35 H11         -1.0890    -1.2550     2.9890 ha         1 G4V       0.141000
     36 H12          3.8050     3.9480     0.7090 h5         1 G4V       0.051100
     37 H13          1.2220    -0.4060     2.6820 ha         1 G4V       0.130000
     38 H14         -2.6910     1.9390    -3.8520 hn         1 G4V       0.401400
     39 H15         -3.9480    -0.8780    -1.3790 h1         1 G4V       0.099700
     40 H16         -4.7120     0.6960    -1.1340 h1         1 G4V       0.099700
     41 H17          0.0540     1.5130    -0.9820 ha         1 G4V       0.131000
     42 C13         -2.3330     1.4850    -2.0750 c2         1 G4V       0.646100
     43 F2          -4.6270     0.8650     1.3810 f          1 G4V      -0.098000
     44 C18          1.4050    -2.0530    -1.2550 c3         1 G4V       0.157600
@<TRIPOS>BOND
     1     1     2 1   
     2     1    23 1   
     3     1    25 1   
     4     2     7 2   
     5     2    26 1   
     6     3    14 ar  
     7     3    23 ar  
     8     4    15 ar  
     9     4    20 ar  
    10     4    24 1   
    11     5     7 1   
    12     5    23 ar  
    13     5    24 ar  
    14     6    11 ar  
    15     6    19 1   
    16     6    20 ar  
    17     7     9 1   
    18     8    16 1   
    19     8    30 1   
    20     8    31 1   
    21     8    32 1   
    22     9    33 1   
    23     9    34 1   
    24     9    44 1   
    25    10    11 ar  
    26    10    15 ar  
    27    10    35 1   
    28    11    13 1   
    29    12    13 1   
    30    12    18 1   
    31    12    21 1   
    32    12    43 1   
    33    14    22 ar  
    34    14    36 1   
    35    15    37 1   
    36    16    44 1   
    37    17    38 1   
    38    17    42 2   
    39    18    19 1   
    40    18    39 1   
    41    18    40 1   
    42    19    42 1   
    43    20    41 1   
    44    22    24 ar  
    45    27    42 1   
    46    28    44 1   
    47    29    44 1   
@<TRIPOS>SUBSTRUCTURE
     1 G4V         1 TEMP              0 ****  ****    0 ROOT
