@<TRIPOS>MOLECULE
G4W
   49    52     1     0     0
SMALL
abcg2


@<TRIPOS>ATOM
      1 C10         -3.4610    -2.5090    -1.6700 c5         1 G4W      -0.091400
      2 N12         -1.5100    -2.8440    -0.4500 n7         1 G4W      -0.559400
      3 C17          0.8500     0.0850     1.6090 c6         1 G4W      -0.091400
      4 C20          2.3070    -0.2810    -0.8550 c6         1 G4W       0.213800
      5 C21          1.5400    -1.4580    -0.2680 c6         1 G4W      -0.091400
      6 C22          4.0520     0.5360     0.6730 ca         1 G4W       0.396900
      7 C24          6.3180    -0.1500     0.6380 ca         1 G4W       0.231000
      8 C26          5.6000     1.2770     2.1870 ca         1 G4W       0.169900
      9 C28          7.4010    -0.9180     0.0780 cg         1 G4W       0.217000
     10 N19          2.7940     0.5750     0.2120 nh         1 G4W      -0.761300
     11 C18          1.7090     1.1770     0.9760 c6         1 G4W       0.213800
     12 C11         -2.2820    -3.4520    -1.5360 c5         1 G4W       0.114800
     13 F01         -5.0930     0.2050     2.6300 f          1 G4W      -0.173000
     14 C16          0.3740    -0.9870     0.6240 c6         1 G4W      -0.136700
     15 F05         -5.8960     2.6200    -1.2860 f          1 G4W      -0.173000
     16 N13         -1.6040    -1.4490    -0.7220 n          1 G4W      -0.324200
     17 O15         -0.9900     0.6780    -0.4800 o          1 G4W      -0.593100
     18 C09         -2.8250    -1.1270    -1.4480 c5         1 G4W       0.162000
     19 N27          4.3580     1.2810     1.7460 nb         1 G4W      -0.263000
     20 C06         -4.3880     0.8280    -1.3500 ca         1 G4W      -0.154500
     21 C04         -5.2720     1.6230    -0.6450 ca         1 G4W       0.199000
     22 C03         -5.5340     1.4420     0.6980 ca         1 G4W      -0.194000
     23 C14         -0.7880    -0.5050    -0.2260 c          1 G4W       0.609100
     24 C02         -4.8640     0.4070     1.3250 ca         1 G4W       0.199000
     25 C07         -3.7380    -0.2010    -0.6840 ca         1 G4W      -0.033300
     26 N25          6.6270     0.6030     1.6980 nb         1 G4W      -0.192000
     27 N29          8.2660    -1.5310    -0.3680 n1         1 G4W      -0.430000
     28 C23          5.0750    -0.2410     0.0700 ca         1 G4W      -0.263000
     29 C08         -3.9780    -0.4200     0.6690 ca         1 G4W      -0.154500
     30 H1          -3.9520    -2.5760    -2.6390 hc         1 G4W       0.068200
     31 H2          -4.2040    -2.7160    -0.8980 hc         1 G4W       0.068200
     32 H3          -0.5390    -3.1190    -0.5520 hn         1 G4W       0.402000
     33 H4           1.4400    -0.4110     2.3840 hc         1 G4W       0.055950
     34 H5          -0.0010     0.5460     2.1140 hc         1 G4W       0.055950
     35 H6           3.1220    -0.6280    -1.4850 h1         1 G4W       0.075200
     36 H7           1.6630     0.3230    -1.4980 h1         1 G4W       0.075200
     37 H8           1.1940    -2.0940    -1.0870 hc         1 G4W       0.055950
     38 H9           2.2210    -2.0650     0.3330 hc         1 G4W       0.055950
     39 H10          5.8000     1.8980     3.0530 h5         1 G4W       0.052100
     40 H11          1.1190     1.7910     0.2980 h1         1 G4W       0.075200
     41 H12          2.1230     1.8250     1.7420 h1         1 G4W       0.075200
     42 H13         -2.5720    -4.4630    -1.2560 h1         1 G4W       0.058200
     43 H14         -1.7150    -3.4950    -2.4720 h1         1 G4W       0.058200
     44 H15          0.0290    -1.8450     1.2100 hc         1 G4W       0.076700
     45 H16         -2.5690    -0.6670    -2.4060 h1         1 G4W       0.072700
     46 H17         -4.2020     1.0170    -2.4000 ha         1 G4W       0.140500
     47 H18         -6.2260     2.0790     1.2340 ha         1 G4W       0.151000
     48 H19          4.9140    -0.8870    -0.7790 ha         1 G4W       0.139000
     49 H20         -3.4840    -1.2200     1.2060 ha         1 G4W       0.140500
@<TRIPOS>BOND
     1     1    12 1   
     2     1    18 1   
     3     1    30 1   
     4     1    31 1   
     5     2    12 1   
     6     2    16 1   
     7     2    32 1   
     8     3    11 1   
     9     3    14 1   
    10     3    33 1   
    11     3    34 1   
    12     4     5 1   
    13     4    10 1   
    14     4    35 1   
    15     4    36 1   
    16     5    14 1   
    17     5    37 1   
    18     5    38 1   
    19     6    10 1   
    20     6    19 ar  
    21     6    28 ar  
    22     7     9 1   
    23     7    26 ar  
    24     7    28 ar  
    25     8    19 ar  
    26     8    26 ar  
    27     8    39 1   
    28     9    27 3   
    29    10    11 1   
    30    11    40 1   
    31    11    41 1   
    32    12    42 1   
    33    12    43 1   
    34    13    24 1   
    35    14    23 1   
    36    14    44 1   
    37    15    21 1   
    38    16    18 1   
    39    16    23 1   
    40    17    23 2   
    41    18    25 1   
    42    18    45 1   
    43    20    21 ar  
    44    20    25 ar  
    45    20    46 1   
    46    21    22 ar  
    47    22    24 ar  
    48    22    47 1   
    49    24    29 ar  
    50    25    29 ar  
    51    28    48 1   
    52    29    49 1   
@<TRIPOS>SUBSTRUCTURE
     1 G4W         1 TEMP              0 ****  ****    0 ROOT
