@<TRIPOS>MOLECULE
G4W
   49    52     1     0     0
SMALL
No Charge or Current Charge


@<TRIPOS>ATOM
      1 C10         -3.6950    -2.2970    -1.9350 c5         1 G4W      -0.091400
      2 N12         -1.8800    -3.0460    -0.6120 n7         1 G4W      -0.559400
      3 C17          0.7550    -0.5310     1.9500 c6         1 G4W      -0.091400
      4 C20          2.4590    -0.8170    -0.4600 c6         1 G4W       0.213800
      5 C21          1.4980    -1.9580    -0.0450 c6         1 G4W      -0.091400
      6 C22          4.1900     0.5460     0.7620 ca         1 G4W       0.396900
      7 C24          6.5760     0.4640     0.4540 ca         1 G4W       0.231000
      8 C26          5.5280     2.3640     1.1940 ca         1 G4W       0.169900
      9 C28          7.7930    -0.2170     0.0970 cg         1 G4W       0.217000
     10 N19          2.9030    -0.0370     0.7360 nh         1 G4W      -0.761300
     11 C18          1.7720     0.5590     1.5180 c6         1 G4W       0.213800
     12 C11         -2.5940    -3.3760    -1.8650 c5         1 G4W       0.114800
     13 F01         -5.4070     0.1390     2.5100 f          1 G4W      -0.173000
     14 C16          0.2890    -1.4020     0.7520 c6         1 G4W      -0.136700
     15 F05         -5.3430     3.2080    -1.1240 f          1 G4W      -0.173000
     16 N13         -1.8000    -1.5920    -0.7180 n          1 G4W      -0.324200
     17 O15         -0.7420     0.4400    -0.4330 o          1 G4W      -0.593100
     18 C09         -2.8640    -1.0290    -1.5880 c5         1 G4W       0.162000
     19 N27          4.2920     1.8270     1.1710 nb         1 G4W      -0.263000
     20 C06         -4.1600     1.1490    -1.3170 ca         1 G4W      -0.154500
     21 C04         -4.9700     2.0290    -0.5820 ca         1 G4W       0.199000
     22 C03         -5.3950     1.6940     0.7100 ca         1 G4W      -0.194000
     23 C14         -0.7900    -0.7530    -0.1580 c          1 G4W       0.609100
     24 C02         -5.0030     0.4700     1.2650 ca         1 G4W       0.199000
     25 C07         -3.7600    -0.0870    -0.7680 ca         1 G4W      -0.033300
     26 N25          6.6780     1.7480     0.8540 nb         1 G4W      -0.192000
     27 N29          8.7760    -0.7790    -0.1950 n1         1 G4W      -0.430000
     28 C23          5.3290    -0.1860     0.3950 ca         1 G4W      -0.263000
     29 C08         -4.1930    -0.4150     0.5370 ca         1 G4W      -0.154500
     30 H1          -4.1690    -2.2330    -2.9200 hc         1 G4W       0.068200
     31 H2          -4.4830    -2.5060    -1.2020 hc         1 G4W       0.068200
     32 H3          -0.9370    -3.4560    -0.6790 hn         1 G4W       0.402000
     33 H4           1.2330    -1.1760     2.7000 hc         1 G4W       0.055950
     34 H5          -0.1070    -0.0670     2.4470 hc         1 G4W       0.055950
     35 H6           3.3130    -1.2570    -0.9950 h1         1 G4W       0.075200
     36 H7           1.9490    -0.1520    -1.1740 h1         1 G4W       0.075200
     37 H8           1.1610    -2.5040    -0.9360 hc         1 G4W       0.055950
     38 H9           2.0490    -2.6800     0.5730 hc         1 G4W       0.055950
     39 H10          5.6070     3.3990     1.5210 h5         1 G4W       0.052100
     40 H11          1.2630     1.3310     0.9210 h1         1 G4W       0.075200
     41 H12          2.1420     1.0520     2.4290 h1         1 G4W       0.075200
     42 H13         -3.0000    -4.3970    -1.8480 h1         1 G4W       0.058200
     43 H14         -1.9170    -3.2950    -2.7280 h1         1 G4W       0.058200
     44 H15         -0.1920    -2.2960     1.1690 hc         1 G4W       0.076700
     45 H16         -2.4390    -0.5470    -2.4790 h1         1 G4W       0.072700
     46 H17         -3.8400     1.4320    -2.3160 ha         1 G4W       0.140500
     47 H18         -6.0220     2.3770     1.2750 ha         1 G4W       0.151000
     48 H19          5.2580    -1.2250     0.0910 ha         1 G4W       0.139000
     49 H20         -3.9010    -1.3590     0.9910 ha         1 G4W       0.140500
@<TRIPOS>BOND
     1     1    12 1   
     2     1    18 1   
     3     1    30 1   
     4     1    31 1   
     5     2    12 1   
     6     2    16 1   
     7     2    32 1   
     8     3    11 1   
     9     3    14 1   
    10     3    33 1   
    11     3    34 1   
    12     4     5 1   
    13     4    10 1   
    14     4    35 1   
    15     4    36 1   
    16     5    14 1   
    17     5    37 1   
    18     5    38 1   
    19     6    10 1   
    20     6    19 ar  
    21     6    28 ar  
    22     7     9 1   
    23     7    26 ar  
    24     7    28 ar  
    25     8    19 ar  
    26     8    26 ar  
    27     8    39 1   
    28     9    27 3   
    29    10    11 1   
    30    11    40 1   
    31    11    41 1   
    32    12    42 1   
    33    12    43 1   
    34    13    24 1   
    35    14    23 1   
    36    14    44 1   
    37    15    21 1   
    38    16    18 1   
    39    16    23 1   
    40    17    23 2   
    41    18    25 1   
    42    18    45 1   
    43    20    21 ar  
    44    20    25 ar  
    45    20    46 1   
    46    21    22 ar  
    47    22    24 ar  
    48    22    47 1   
    49    24    29 ar  
    50    25    29 ar  
    51    28    48 1   
    52    29    49 1   
@<TRIPOS>SUBSTRUCTURE
     1 G4W         1 TEMP              0 ****  ****    0 ROOT
