@<TRIPOS>MOLECULE
G4X
   49    48     1     0     0
SMALL
No Charge or Current Charge


@<TRIPOS>ATOM
      1 SAQ         -5.2460   139.7990   162.0830 s          1 G4X      -0.339400
      2 CAP         -4.2690   140.3620   160.8440 cs         1 G4X       0.280200
      3 CAO         -3.7960   139.4940   159.6910 c3         1 G4X      -0.144400
      4 CAN         -2.4940   138.7300   160.0190 c3         1 G4X      -0.070400
      5 CAM         -2.0010   137.8490   158.8510 c3         1 G4X      -0.076400
      6 CAL         -0.6990   137.0820   159.1830 c3         1 G4X      -0.072400
      7 CAK         -0.1240   136.2550   158.0080 c3         1 G4X      -0.073400
      8 CAJ         -1.0160   135.0750   157.5570 c3         1 G4X      -0.076400
      9 CAI         -0.3680   134.2230   156.4440 c3         1 G4X      -0.077400
     10 CAH         -1.2630   133.0450   155.9880 c3         1 G4X      -0.073400
     11 CAG         -0.6080   132.1150   154.9390 c3         1 G4X      -0.074400
     12 CAF         -0.3720   132.7770   153.5560 c3         1 G4X      -0.075400
     13 CAE          0.2490   131.8370   152.4900 c3         1 G4X      -0.071400
     14 CAD          1.7960   131.8590   152.3890 c3         1 G4X      -0.073400
     15 CAC          2.5530   131.4200   153.6630 c3         1 G4X      -0.077400
     16 CAB          4.0780   131.3000   153.4470 c3         1 G4X      -0.076400
     17 CAA          4.8350   130.8760   154.7200 c3         1 G4X      -0.088100
     18 H1          -3.9180   141.3980   160.8350 h4         1 G4X       0.030200
     19 H2          -3.6370   140.1270   158.8100 hc         1 G4X       0.068700
     20 H3          -4.5850   138.7790   159.4280 hc         1 G4X       0.068700
     21 H4          -2.6590   138.0990   160.9020 hc         1 G4X       0.044200
     22 H5          -1.7110   139.4520   160.2840 hc         1 G4X       0.044200
     23 H6          -2.7910   137.1360   158.5900 hc         1 G4X       0.041700
     24 H7          -1.8320   138.4800   157.9690 hc         1 G4X       0.041700
     25 H8           0.0640   137.8040   159.5010 hc         1 G4X       0.038700
     26 H9          -0.8760   136.4180   160.0390 hc         1 G4X       0.038700
     27 H10          0.8540   135.8610   158.3120 hc         1 G4X       0.038700
     28 H11          0.0590   136.9200   157.1550 hc         1 G4X       0.038700
     29 H12         -1.9770   135.4580   157.1930 hc         1 G4X       0.037700
     30 H13         -1.2310   134.4350   158.4220 hc         1 G4X       0.037700
     31 H14          0.5910   133.8290   156.8030 hc         1 G4X       0.037700
     32 H15         -0.1490   134.8720   155.5880 hc         1 G4X       0.037700
     33 H16         -2.2060   133.4370   155.5880 hc         1 G4X       0.037700
     34 H17         -1.5230   132.4420   156.8670 hc         1 G4X       0.037700
     35 H18         -1.2610   131.2450   154.8000 hc         1 G4X       0.038700
     36 H19          0.3310   131.7300   155.3480 hc         1 G4X       0.038700
     37 H20          0.2590   133.6670   153.6600 hc         1 G4X       0.037700
     38 H21         -1.3420   133.1280   153.1810 hc         1 G4X       0.037700
     39 H22         -0.1460   132.1310   151.5100 hc         1 G4X       0.037700
     40 H23         -0.0950   130.8080   152.6560 hc         1 G4X       0.037700
     41 H24          2.0900   131.2020   151.5620 hc         1 G4X       0.035700
     42 H25          2.1210   132.8700   152.1110 hc         1 G4X       0.035700
     43 H26          2.3740   132.1510   154.4600 hc         1 G4X       0.038700
     44 H27          2.1600   130.4550   154.0060 hc         1 G4X       0.038700
     45 H28          4.2770   130.5680   152.6540 hc         1 G4X       0.035700
     46 H29          4.4730   132.2630   153.1000 hc         1 G4X       0.035700
     47 H30          5.9110   130.8040   154.5180 hc         1 G4X       0.031033
     48 H31          4.6850   131.6080   155.5220 hc         1 G4X       0.031033
     49 H32          4.4850   129.8980   155.0720 hc         1 G4X       0.031033
@<TRIPOS>BOND
     1     1     2 2   
     2     2     3 1   
     3     2    18 1   
     4     3     4 1   
     5     3    19 1   
     6     3    20 1   
     7     4     5 1   
     8     4    21 1   
     9     4    22 1   
    10     5     6 1   
    11     5    23 1   
    12     5    24 1   
    13     6     7 1   
    14     6    25 1   
    15     6    26 1   
    16     7     8 1   
    17     7    27 1   
    18     7    28 1   
    19     8     9 1   
    20     8    29 1   
    21     8    30 1   
    22     9    10 1   
    23     9    31 1   
    24     9    32 1   
    25    10    11 1   
    26    10    33 1   
    27    10    34 1   
    28    11    12 1   
    29    11    35 1   
    30    11    36 1   
    31    12    13 1   
    32    12    37 1   
    33    12    38 1   
    34    13    14 1   
    35    13    39 1   
    36    13    40 1   
    37    14    15 1   
    38    14    41 1   
    39    14    42 1   
    40    15    16 1   
    41    15    43 1   
    42    15    44 1   
    43    16    17 1   
    44    16    45 1   
    45    16    46 1   
    46    17    47 1   
    47    17    48 1   
    48    17    49 1   
@<TRIPOS>SUBSTRUCTURE
     1 G4X         1 TEMP              0 ****  ****    0 ROOT
