@<TRIPOS>MOLECULE
G4X
   49    48     1     0     0
SMALL
abcg2


@<TRIPOS>ATOM
      1 SAQ         -5.1060   140.5100   161.1740 s          1 G4X      -0.339400
      2 CAP         -3.6670   140.4040   160.4490 cs         1 G4X       0.280200
      3 CAO         -3.2920   139.4450   159.3810 c3         1 G4X      -0.144400
      4 CAN         -2.1550   138.5220   159.8410 c3         1 G4X      -0.070400
      5 CAM         -1.7010   137.5810   158.7330 c3         1 G4X      -0.076400
      6 CAL         -0.5840   136.6440   159.1810 c3         1 G4X      -0.072400
      7 CAK         -0.0520   135.7400   158.0730 c3         1 G4X      -0.073400
      8 CAJ         -1.0660   134.7310   157.5450 c3         1 G4X      -0.076400
      9 CAI         -0.4890   133.8240   156.4650 c3         1 G4X      -0.077400
     10 CAH         -1.4940   132.8100   155.9280 c3         1 G4X      -0.073400
     11 CAG         -0.9160   131.8770   154.8670 c3         1 G4X      -0.074400
     12 CAF         -0.6500   132.5520   153.5220 c3         1 G4X      -0.075400
     13 CAE          0.1570   131.6920   152.5390 c3         1 G4X      -0.071400
     14 CAD          1.6520   132.0070   152.5070 c3         1 G4X      -0.073400
     15 CAC          2.3770   131.8490   153.8380 c3         1 G4X      -0.077400
     16 CAB          3.8690   132.1430   153.7420 c3         1 G4X      -0.076400
     17 CAA          4.5860   132.0100   155.0780 c3         1 G4X      -0.088100
     18 H1          -2.8620   141.0730   160.7580 h4         1 G4X       0.030200
     19 H2          -2.9400   140.0250   158.5200 hc         1 G4X       0.068700
     20 H3          -4.1580   138.8630   159.0640 hc         1 G4X       0.068700
     21 H4          -2.4940   137.9410   160.7040 hc         1 G4X       0.044200
     22 H5          -1.3090   139.1240   160.1840 hc         1 G4X       0.044200
     23 H6          -2.5610   137.0040   158.3810 hc         1 G4X       0.041700
     24 H7          -1.3560   138.1710   157.8770 hc         1 G4X       0.041700
     25 H8           0.2410   137.2440   159.5780 hc         1 G4X       0.038700
     26 H9          -0.9400   136.0290   160.0150 hc         1 G4X       0.038700
     27 H10          0.8220   135.1960   158.4460 hc         1 G4X       0.038700
     28 H11          0.3090   136.3580   157.2440 hc         1 G4X       0.038700
     29 H12         -1.9400   135.2530   157.1420 hc         1 G4X       0.037700
     30 H13         -1.4350   134.1220   158.3770 hc         1 G4X       0.037700
     31 H14          0.3780   133.2870   156.8650 hc         1 G4X       0.037700
     32 H15         -0.1070   134.4440   155.6480 hc         1 G4X       0.037700
     33 H16         -2.3640   133.3380   155.5210 hc         1 G4X       0.037700
     34 H17         -1.8700   132.2130   156.7660 hc         1 G4X       0.037700
     35 H18         -1.6060   131.0430   154.7020 hc         1 G4X       0.038700
     36 H19          0.0040   131.4270   155.2530 hc         1 G4X       0.038700
     37 H20         -0.1300   133.5040   153.6710 hc         1 G4X       0.037700
     38 H21         -1.6160   132.8140   153.0790 hc         1 G4X       0.037700
     39 H22         -0.2340   131.8280   151.5270 hc         1 G4X       0.037700
     40 H23          0.0110   130.6320   152.7730 hc         1 G4X       0.037700
     41 H24          2.1330   131.3660   151.7610 hc         1 G4X       0.035700
     42 H25          1.7880   133.0350   152.1510 hc         1 G4X       0.035700
     43 H26          1.9340   132.5160   154.5840 hc         1 G4X       0.038700
     44 H27          2.2310   130.8310   154.2170 hc         1 G4X       0.038700
     45 H28          4.3260   131.4690   153.0110 hc         1 G4X       0.035700
     46 H29          4.0130   133.1550   153.3500 hc         1 G4X       0.035700
     47 H30          5.6500   132.2290   154.9870 hc         1 G4X       0.031033
     48 H31          4.1700   132.6960   155.8180 hc         1 G4X       0.031033
     49 H32          4.4900   130.9990   155.4790 hc         1 G4X       0.031033
@<TRIPOS>BOND
     1     1     2 2   
     2     2     3 1   
     3     2    18 1   
     4     3     4 1   
     5     3    19 1   
     6     3    20 1   
     7     4     5 1   
     8     4    21 1   
     9     4    22 1   
    10     5     6 1   
    11     5    23 1   
    12     5    24 1   
    13     6     7 1   
    14     6    25 1   
    15     6    26 1   
    16     7     8 1   
    17     7    27 1   
    18     7    28 1   
    19     8     9 1   
    20     8    29 1   
    21     8    30 1   
    22     9    10 1   
    23     9    31 1   
    24     9    32 1   
    25    10    11 1   
    26    10    33 1   
    27    10    34 1   
    28    11    12 1   
    29    11    35 1   
    30    11    36 1   
    31    12    13 1   
    32    12    37 1   
    33    12    38 1   
    34    13    14 1   
    35    13    39 1   
    36    13    40 1   
    37    14    15 1   
    38    14    41 1   
    39    14    42 1   
    40    15    16 1   
    41    15    43 1   
    42    15    44 1   
    43    16    17 1   
    44    16    45 1   
    45    16    46 1   
    46    17    47 1   
    47    17    48 1   
    48    17    49 1   
@<TRIPOS>SUBSTRUCTURE
     1 G4X         1 TEMP              0 ****  ****    0 ROOT
