@<TRIPOS>MOLECULE
G4Y
   46    50     1     0     0
SMALL
No Charge or Current Charge


@<TRIPOS>ATOM
      1 N3          -4.5780     1.3110    -0.1870 na         1 G4Y      -0.318400
      2 C4           2.2780    -1.0930     1.2020 ca         1 G4Y      -0.067300
      3 N2          -3.1400     3.2940     0.0950 nb         1 G4Y      -0.191000
      4 C7           3.5320    -1.8980     1.4190 c5         1 G4Y      -0.033100
      5 C6           1.4160     0.8080    -0.0270 ca         1 G4Y      -0.042000
      6 C9           3.8980     0.0040    -0.1760 c5         1 G4Y       0.269800
      7 C13         -2.3520     1.0500    -0.1010 ca         1 G4Y      -0.172800
      8 C20         -2.3860    -3.9850    -0.4140 ca         1 G4Y      -0.111000
      9 C21         -2.9970    -2.7380    -0.1940 ca         1 G4Y      -0.098500
     10 C8           4.6170    -0.8660     0.9300 c5         1 G4Y      -0.106400
     11 C18         -0.4780    -2.8720    -1.4210 ca         1 G4Y      -0.111000
     12 C16         -2.3430    -1.5400    -0.5540 ca         1 G4Y      -0.022800
     13 C19         -1.1220    -4.0530    -1.0200 ca         1 G4Y      -0.109000
     14 C1           0.1230     0.5930     0.5200 cp         1 G4Y      -0.163500
     15 C2          -0.0490    -0.4770     1.4410 ca         1 G4Y      -0.068000
     16 C3           1.0210    -1.3260     1.7770 ca         1 G4Y      -0.105000
     17 C5           2.4770    -0.0430     0.3270 ca         1 G4Y      -0.123300
     18 C10         -1.0210     1.4850     0.1620 cp         1 G4Y       0.230500
     19 N1          -0.7820     2.8110     0.2770 nb         1 G4Y      -0.210000
     20 C11         -1.8440     3.6470     0.2420 ca         1 G4Y       0.139900
     21 C12         -3.3740     1.9810    -0.0760 ca         1 G4Y       0.124500
     22 C14         -4.3830    -0.0770    -0.3010 cc         1 G4Y      -0.145100
     23 C15         -3.0070    -0.2370    -0.3340 cd         1 G4Y      -0.060400
     24 C17         -1.0910    -1.6270    -1.2000 ca         1 G4Y      -0.098500
     25 N4           4.5530     1.3260    -0.0400 nu         1 G4Y      -0.950400
     26 C22          4.4840     1.9620    -1.2470 c2         1 G4Y       0.631100
     27 H1          -5.4820     1.7730    -0.1740 hn         1 G4Y       0.367000
     28 H3           3.5330    -2.8080     0.8080 hc         1 G4Y       0.057200
     29 H4           1.5810     1.6200    -0.7320 ha         1 G4Y       0.136000
     30 H5           3.9850    -0.4650    -1.1700 h1         1 G4Y       0.067700
     31 H6          -2.8940    -4.8990    -0.1140 ha         1 G4Y       0.113000
     32 H7          -3.9720    -2.7080     0.2850 ha         1 G4Y       0.116000
     33 H8           4.9330    -0.2560     1.7850 hc         1 G4Y       0.054200
     34 H9           5.5180    -1.3570     0.5480 hc         1 G4Y       0.054200
     35 H10          6.0220     1.0320    -1.5610 hn         1 G4Y       0.367400
     36 H11          0.4910    -2.9200    -1.9120 ha         1 G4Y       0.113000
     37 H12         -0.6490    -5.0170    -1.1920 ha         1 G4Y       0.112000
     38 H13         -1.0260    -0.6530     1.8870 ha         1 G4Y       0.124000
     39 H14          0.8730    -2.1530     2.4680 ha         1 G4Y       0.120000
     40 H15         -1.6350     4.7090     0.3570 h5         1 G4Y       0.050100
     41 H16         -5.1950    -0.7910    -0.4160 h4         1 G4Y       0.223000
     42 H17         -0.6000    -0.7300    -1.5640 ha         1 G4Y       0.116000
     43 H18          4.2160     1.9090     0.7230 hn         1 G4Y       0.486000
     44 H19          3.7030     2.7150    -1.3810 h5         1 G4Y       0.022800
     45 H2           3.6810    -2.1940     2.4630 hc         1 G4Y       0.057200
     46 N5           5.4360     1.7210    -2.0470 n2         1 G4Y      -0.842100
@<TRIPOS>BOND
     1     1    21 1   
     2     1    22 1   
     3     1    27 1   
     4     2     4 1   
     5     2    16 ar  
     6     2    17 ar  
     7     3    20 ar  
     8     3    21 ar  
     9     4    10 1   
    10     4    28 1   
    11     4    45 1   
    12     5    14 ar  
    13     5    17 ar  
    14     5    29 1   
    15     6    10 1   
    16     6    17 1   
    17     6    25 1   
    18     6    30 1   
    19     7    18 ar  
    20     7    21 ar  
    21     7    23 1   
    22     8     9 ar  
    23     8    13 ar  
    24     8    31 1   
    25     9    12 ar  
    26     9    32 1   
    27    10    33 1   
    28    10    34 1   
    29    11    13 ar  
    30    11    24 ar  
    31    11    36 1   
    32    12    23 1   
    33    12    24 ar  
    34    13    37 1   
    35    14    15 ar  
    36    14    18 1   
    37    15    16 ar  
    38    15    38 1   
    39    16    39 1   
    40    18    19 ar  
    41    19    20 ar  
    42    20    40 1   
    43    22    23 2   
    44    22    41 1   
    45    24    42 1   
    46    25    26 1   
    47    25    43 1   
    48    26    44 1   
    49    26    46 2   
    50    35    46 1   
@<TRIPOS>SUBSTRUCTURE
     1 G4Y         1 TEMP              0 ****  ****    0 ROOT
