@<TRIPOS>MOLECULE
G4Y
   46    50     1     0     0
SMALL
abcg2


@<TRIPOS>ATOM
      1 N3          -4.5740     1.2940    -0.3270 na         1 G4Y      -0.318400
      2 C4           2.2620    -1.0460     1.0570 ca         1 G4Y      -0.067300
      3 N2          -3.2230     3.2210     0.0600 nb         1 G4Y      -0.191000
      4 C7           3.5810    -1.7570     1.1670 c5         1 G4Y      -0.033100
      5 C6           1.3030     0.9180     0.0310 ca         1 G4Y      -0.042000
      6 C9           3.8130     0.2650    -0.1840 c5         1 G4Y       0.269800
      7 C13         -2.3850     0.9340    -0.0280 ca         1 G4Y      -0.172800
      8 C20         -2.4270    -4.0360    -0.0300 ca         1 G4Y      -0.111000
      9 C21         -2.9780    -2.7740     0.1500 ca         1 G4Y      -0.098500
     10 C8           4.5900    -0.6710     0.7670 c5         1 G4Y      -0.106400
     11 C18         -0.7500    -3.0960    -1.4670 ca         1 G4Y      -0.111000
     12 C16         -2.4220    -1.6590    -0.4760 ca         1 G4Y      -0.022800
     13 C19         -1.3090    -4.2010    -0.8370 ca         1 G4Y      -0.109000
     14 C1           0.0550     0.5640     0.5480 cp         1 G4Y      -0.163500
     15 C2          -0.0670    -0.5830     1.3320 ca         1 G4Y      -0.068000
     16 C3           1.0320    -1.3900     1.5930 ca         1 G4Y      -0.105000
     17 C5           2.3900     0.1040     0.2860 ca         1 G4Y      -0.123300
     18 C10         -1.1140     1.4240     0.2920 cp         1 G4Y       0.230500
     19 N1          -0.9240     2.7380     0.3980 nb         1 G4Y      -0.210000
     20 C11         -1.9630     3.5580     0.2670 ca         1 G4Y       0.139900
     21 C12         -3.4010     1.9170    -0.0850 ca         1 G4Y       0.124500
     22 C14         -4.3460    -0.0480    -0.4660 cc         1 G4Y      -0.145100
     23 C15         -3.0180    -0.3290    -0.3030 cd         1 G4Y      -0.060400
     24 C17         -1.3030    -1.8380    -1.2910 ca         1 G4Y      -0.098500
     25 N4           4.2400     1.6400    -0.1920 nu         1 G4Y      -0.950400
     26 C22          5.3210     2.0880    -0.8750 c2         1 G4Y       0.631100
     27 H1          -5.4660     1.7490    -0.4400 hn         1 G4Y       0.367000
     28 H3           3.6120    -2.5960     0.4650 hc         1 G4Y       0.057200
     29 H4           1.4070     1.8150    -0.5680 ha         1 G4Y       0.136000
     30 H5           3.8850    -0.1130    -1.2120 h1         1 G4Y       0.067700
     31 H6          -2.8680    -4.8890     0.4680 ha         1 G4Y       0.113000
     32 H7          -3.8350    -2.6510     0.8010 ha         1 G4Y       0.116000
     33 H8           4.8850    -0.0990     1.6500 hc         1 G4Y       0.054200
     34 H9           5.4960    -1.0710     0.3130 hc         1 G4Y       0.054200
     35 H10          5.8290     0.4970    -1.8020 hn         1 G4Y       0.367400
     36 H11          0.1210    -3.2130    -2.0990 ha         1 G4Y       0.113000
     37 H12         -0.8760    -5.1830    -0.9730 ha         1 G4Y       0.112000
     38 H13         -1.0260    -0.8370     1.7640 ha         1 G4Y       0.124000
     39 H14          0.9220    -2.2710     2.2130 ha         1 G4Y       0.120000
     40 H15         -1.7520     4.6170     0.3590 h5         1 G4Y       0.050100
     41 H16         -5.1550    -0.7190    -0.7060 h4         1 G4Y       0.223000
     42 H17         -0.8640    -0.9860    -1.7930 ha         1 G4Y       0.116000
     43 H18          3.8990     2.2300     0.5500 hn         1 G4Y       0.486000
     44 H19          5.5220     3.1400    -0.6780 h5         1 G4Y       0.022800
     45 H2           3.7680    -2.1670     2.1600 hc         1 G4Y       0.057200
     46 N5           6.0800     1.4760    -1.6960 n2         1 G4Y      -0.842100
@<TRIPOS>BOND
     1     1    21 1   
     2     1    22 1   
     3     1    27 1   
     4     2     4 1   
     5     2    16 ar  
     6     2    17 ar  
     7     3    20 ar  
     8     3    21 ar  
     9     4    10 1   
    10     4    28 1   
    11     4    45 1   
    12     5    14 ar  
    13     5    17 ar  
    14     5    29 1   
    15     6    10 1   
    16     6    17 1   
    17     6    25 1   
    18     6    30 1   
    19     7    18 ar  
    20     7    21 ar  
    21     7    23 1   
    22     8     9 ar  
    23     8    13 ar  
    24     8    31 1   
    25     9    12 ar  
    26     9    32 1   
    27    10    33 1   
    28    10    34 1   
    29    11    13 ar  
    30    11    24 ar  
    31    11    36 1   
    32    12    23 1   
    33    12    24 ar  
    34    13    37 1   
    35    14    15 ar  
    36    14    18 1   
    37    15    16 ar  
    38    15    38 1   
    39    16    39 1   
    40    18    19 ar  
    41    19    20 ar  
    42    20    40 1   
    43    22    23 2   
    44    22    41 1   
    45    24    42 1   
    46    25    26 1   
    47    25    43 1   
    48    26    44 1   
    49    26    46 2   
    50    35    46 1   
@<TRIPOS>SUBSTRUCTURE
     1 G4Y         1 TEMP              0 ****  ****    0 ROOT
