@<TRIPOS>MOLECULE
G4Z
   38    38     1     0     0
SMALL
No Charge or Current Charge


@<TRIPOS>ATOM
      1 C13         -2.4030    -0.7590     1.3130 ca         1 G4Z      -0.142500
      2 C10          0.2770     0.7660    -1.8590 c3         1 G4Z      -0.110600
      3 C12         -1.8750     0.1160     0.3460 ca         1 G4Z       0.142100
      4 C17         -4.0930     0.2580    -0.6780 ca         1 G4Z      -0.081000
      5 C14         -3.7600    -1.1260     1.2910 ca         1 G4Z      -0.081000
      6 C15         -4.6050    -0.6160     0.2940 ca         1 G4Z       0.098000
      7 C18         -2.7340     0.6250    -0.6560 ca         1 G4Z      -0.142500
      8 C01          1.9860    -1.3470     0.3660 c3         1 G4Z       0.164100
      9 C03          4.0170     0.0970     0.2450 c3         1 G4Z       0.192800
     10 C04          4.9670    -0.9630    -0.3640 c3         1 G4Z       0.081600
     11 C06          1.7810     1.1610     0.2010 c3         1 G4Z       0.424500
     12 C08          0.3050     1.2630    -0.3830 c3         1 G4Z       0.178000
     13 C09         -0.1920     2.7300    -0.2290 c3         1 G4Z      -0.110600
     14 N02          2.5750    -0.0620    -0.1080 n3         1 G4Z      -0.777600
     15 O07          1.7460     1.2640     1.6200 oh         1 G4Z      -0.677000
     16 O11         -0.5230     0.4050     0.4650 os         1 G4Z      -0.393100
     17 S05          6.7680    -0.6290    -0.0470 sh         1 G4Z      -0.463800
     18 Cl          -6.3030    -1.0710     0.2610 cl         1 G4Z      -0.202000
     19 H1          -1.7520    -1.1580     2.0860 ha         1 G4Z       0.124500
     20 H2           0.1700    -0.3230    -1.9090 hc         1 G4Z       0.050200
     21 H3          -0.5290     1.2220    -2.4420 hc         1 G4Z       0.050200
     22 H4           1.2100     1.0340    -2.3680 hc         1 G4Z       0.050200
     23 H5          -4.7500     0.6510    -1.4500 ha         1 G4Z       0.130000
     24 H6          -4.1560    -1.8030     2.0440 ha         1 G4Z       0.130000
     25 H7          -2.3880     1.3000    -1.4250 ha         1 G4Z       0.124500
     26 H8           1.9570    -1.3930     1.4630 h1         1 G4Z       0.036033
     27 H9           0.9680    -1.4880    -0.0130 h1         1 G4Z       0.036033
     28 H10          2.5690    -2.2050     0.0080 h1         1 G4Z       0.036033
     29 H11          4.1460     0.0850     1.3360 h1         1 G4Z       0.052200
     30 H12          4.3700     1.0770    -0.1030 h1         1 G4Z       0.052200
     31 H13          4.7320    -1.9520     0.0490 h1         1 G4Z       0.062700
     32 H14          4.8110    -1.0010    -1.4490 h1         1 G4Z       0.062700
     33 H15          2.3380     2.0230    -0.1920 h2         1 G4Z       0.080700
     34 H16          0.5210     3.4220    -0.6930 hc         1 G4Z       0.050200
     35 H17         -1.1600     2.9040    -0.7040 hc         1 G4Z       0.050200
     36 H18         -0.2840     3.0020     0.8290 hc         1 G4Z       0.050200
     37 H20          0.9380     0.7600     1.8510 ho         1 G4Z       0.456000
     38 H21          7.2380    -1.7150    -0.7100 hs         1 G4Z       0.215800
@<TRIPOS>BOND
     1     1     3 ar  
     2     1     5 ar  
     3     1    19 1   
     4     2    12 1   
     5     2    20 1   
     6     2    21 1   
     7     2    22 1   
     8     3     7 ar  
     9     3    16 1   
    10     4     6 ar  
    11     4     7 ar  
    12     4    23 1   
    13     5     6 ar  
    14     5    24 1   
    15     6    18 1   
    16     7    25 1   
    17     8    14 1   
    18     8    26 1   
    19     8    27 1   
    20     8    28 1   
    21     9    10 1   
    22     9    14 1   
    23     9    29 1   
    24     9    30 1   
    25    10    17 1   
    26    10    31 1   
    27    10    32 1   
    28    11    12 1   
    29    11    14 1   
    30    11    15 1   
    31    11    33 1   
    32    12    13 1   
    33    12    16 1   
    34    13    34 1   
    35    13    35 1   
    36    13    36 1   
    37    15    37 1   
    38    17    38 1   
@<TRIPOS>SUBSTRUCTURE
     1 G4Z         1 TEMP              0 ****  ****    0 ROOT
