@<TRIPOS>MOLECULE
G4Z
   38    38     1     0     0
SMALL
abcg2


@<TRIPOS>ATOM
      1 C13         -2.5010    -0.3150     1.4050 ca         1 G4Z      -0.142500
      2 C10          0.6320     0.6720    -1.8310 c3         1 G4Z      -0.110600
      3 C12         -1.8660    -0.0500     0.1940 ca         1 G4Z       0.142100
      4 C17         -4.0250     0.2340    -0.8420 ca         1 G4Z      -0.081000
      5 C14         -3.8830    -0.3170     1.4960 ca         1 G4Z      -0.081000
      6 C15         -4.6390    -0.0350     0.3700 ca         1 G4Z       0.098000
      7 C18         -2.6410     0.2200    -0.9320 ca         1 G4Z      -0.142500
      8 C01          2.1160    -1.6110     0.3510 c3         1 G4Z       0.164100
      9 C03          3.9240    -0.0260     0.4310 c3         1 G4Z       0.192800
     10 C04          4.8510    -0.4610    -0.6970 c3         1 G4Z       0.081600
     11 C06          1.6500     0.8040     0.4710 c3         1 G4Z       0.424500
     12 C08          0.3380     0.9010    -0.3550 c3         1 G4Z       0.178000
     13 C09         -0.2690     2.2840    -0.1330 c3         1 G4Z      -0.110600
     14 N02          2.5360    -0.2530     0.0640 n3         1 G4Z      -0.777600
     15 O07          1.3780     0.8410     1.8540 oh         1 G4Z      -0.677000
     16 O11         -0.5160    -0.1360     0.1760 os         1 G4Z      -0.393100
     17 S05          6.5770    -0.1720    -0.1790 sh         1 G4Z      -0.463800
     18 CL          -6.3700    -0.0240     0.4780 cl         1 G4Z      -0.202000
     19 H1          -1.9080    -0.5290     2.2860 ha         1 G4Z       0.124500
     20 H2           0.9250    -0.3570    -2.0290 hc         1 G4Z       0.050200
     21 H3          -0.2280     0.9160    -2.4540 hc         1 G4Z       0.050200
     22 H4           1.4530     1.3140    -2.1500 hc         1 G4Z       0.050200
     23 H5          -4.6160     0.4500    -1.7220 ha         1 G4Z       0.130000
     24 H6          -4.3610    -0.5270     2.4440 ha         1 G4Z       0.130000
     25 H7          -2.1840     0.4140    -1.8920 ha         1 G4Z       0.124500
     26 H8           1.9960    -1.8150     1.4240 h1         1 G4Z       0.036033
     27 H9           1.1830    -1.8570    -0.1500 h1         1 G4Z       0.036033
     28 H10          2.8680    -2.3060    -0.0220 h1         1 G4Z       0.036033
     29 H11          4.1960    -0.5470     1.3600 h1         1 G4Z       0.052200
     30 H12          4.0820     1.0380     0.6170 h1         1 G4Z       0.052200
     31 H13          4.7230    -1.5190    -0.9290 h1         1 G4Z       0.062700
     32 H14          4.6300     0.1180    -1.5930 h1         1 G4Z       0.062700
     33 H15          2.1850     1.7330     0.2580 h2         1 G4Z       0.080700
     34 H16          0.4510     3.0450    -0.4330 hc         1 G4Z       0.050200
     35 H17         -1.1640     2.4390    -0.7350 hc         1 G4Z       0.050200
     36 H18         -0.5250     2.4570     0.9120 hc         1 G4Z       0.050200
     37 H20          0.7140     0.1710     2.0530 ho         1 G4Z       0.456000
     38 H21          7.1730    -0.6420    -1.2800 hs         1 G4Z       0.215800
@<TRIPOS>BOND
     1     1     3 ar  
     2     1     5 ar  
     3     1    19 1   
     4     2    12 1   
     5     2    20 1   
     6     2    21 1   
     7     2    22 1   
     8     3     7 ar  
     9     3    16 1   
    10     4     6 ar  
    11     4     7 ar  
    12     4    23 1   
    13     5     6 ar  
    14     5    24 1   
    15     6    18 1   
    16     7    25 1   
    17     8    14 1   
    18     8    26 1   
    19     8    27 1   
    20     8    28 1   
    21     9    10 1   
    22     9    14 1   
    23     9    29 1   
    24     9    30 1   
    25    10    17 1   
    26    10    31 1   
    27    10    32 1   
    28    11    12 1   
    29    11    14 1   
    30    11    15 1   
    31    11    33 1   
    32    12    13 1   
    33    12    16 1   
    34    13    34 1   
    35    13    35 1   
    36    13    36 1   
    37    15    37 1   
    38    17    38 1   
@<TRIPOS>SUBSTRUCTURE
     1 G4Z         1 TEMP              0 ****  ****    0 ROOT
