@<TRIPOS>MOLECULE
G50
   34    35     1     0     0
SMALL
No Charge or Current Charge


@<TRIPOS>ATOM
      1 C1           1.0730    -0.4410     1.6980 ca         1 G50      -0.325500
      2 C2           1.8160    -0.2720     0.5300 ca         1 G50       0.260100
      3 C3           3.2020    -0.1370     0.5960 ca         1 G50      -0.325500
      4 C4           3.8460    -0.1890     1.8330 ca         1 G50       0.282100
      5 C5           3.1180    -0.4050     3.0130 ca         1 G50      -0.371600
      6 C6           1.7190    -0.5000     2.9360 ca         1 G50       0.282100
      7 C7           3.8490    -0.5020     4.3160 c          1 G50       0.622700
      8 C8           3.6020    -1.6820     5.2660 c3         1 G50      -0.156400
      9 C9           4.6890    -2.7660     5.0920 c3         1 G50      -0.016100
     10 O1           0.9640    -0.5980     4.0590 oh         1 G50      -0.541100
     11 O2           4.7100     0.3310     4.5740 o          1 G50      -0.597100
     12 C10          4.4560    -3.9570     6.0130 ca         1 G50      -0.120300
     13 C11          5.0150    -3.9740     7.3050 ca         1 G50      -0.068500
     14 C12          4.7960    -5.0720     8.1570 ca         1 G50      -0.174500
     15 C13          4.0160    -6.1540     7.7200 ca         1 G50       0.137100
     16 C14          3.4550    -6.1410     6.4350 ca         1 G50      -0.174500
     17 C15          3.6730    -5.0450     5.5810 ca         1 G50      -0.068500
     18 O3           3.7990    -7.2210     8.5400 oh         1 G50      -0.535100
     19 O4           1.1810    -0.2160    -0.6670 oh         1 G50      -0.523100
     20 O5           5.1910    -0.0120     1.8760 oh         1 G50      -0.541100
     21 H3           3.7880     0.0190    -0.3060 ha         1 G50       0.136000
     22 H1          -0.0090    -0.5160     1.6320 ha         1 G50       0.136000
     23 H4           1.8620    -0.0890    -1.3600 ho         1 G50       0.476000
     24 HA           0.0230    -0.6120     3.7850 ho         1 G50       0.503000
     25 H5           5.4080     0.2170     2.8100 ho         1 G50       0.503000
     26 H8C1         3.6260    -1.3210     6.3000 hc         1 G50       0.077200
     27 H8C2         2.6420    -2.1590     5.0520 hc         1 G50       0.077200
     28 H9C1         4.7040    -3.0970     4.0450 hc         1 G50       0.058700
     29 H9C2         5.6750    -2.3270     5.2860 hc         1 G50       0.058700
     30 H11          5.6180    -3.1370     7.6510 ha         1 G50       0.112500
     31 H15          3.2320    -5.0420     4.5860 ha         1 G50       0.112500
     32 H12          5.2330    -5.0720     9.1530 ha         1 G50       0.119500
     33 H14          2.8510    -6.9790     6.0980 ha         1 G50       0.119500
     34 HB           4.2630    -7.0580     9.3890 ho         1 G50       0.464000
@<TRIPOS>BOND
     1     1     2 ar  
     2     1     6 ar  
     3     1    22 1   
     4     2     3 ar  
     5     2    19 1   
     6     3     4 ar  
     7     3    21 1   
     8     4     5 ar  
     9     4    20 1   
    10     5     6 ar  
    11     5     7 1   
    12     6    10 1   
    13     7     8 1   
    14     7    11 2   
    15     8     9 1   
    16     8    26 1   
    17     8    27 1   
    18     9    12 1   
    19     9    28 1   
    20     9    29 1   
    21    10    24 1   
    22    12    13 ar  
    23    12    17 ar  
    24    13    14 ar  
    25    13    30 1   
    26    14    15 ar  
    27    14    32 1   
    28    15    16 ar  
    29    15    18 1   
    30    16    17 ar  
    31    16    33 1   
    32    17    31 1   
    33    18    34 1   
    34    19    23 1   
    35    20    25 1   
@<TRIPOS>SUBSTRUCTURE
     1 G50         1 TEMP              0 ****  ****    0 ROOT
