@<TRIPOS>MOLECULE
G50
   34    35     1     0     0
SMALL
abcg2


@<TRIPOS>ATOM
      1 C1           0.9830    -0.3270     1.7990 ca         1 G50      -0.325500
      2 C2           1.4890     0.4390     0.7510 ca         1 G50       0.260100
      3 C3           2.8520     0.6700     0.6330 ca         1 G50      -0.325500
      4 C4           3.7210     0.1210     1.5680 ca         1 G50       0.282100
      5 C5           3.2540    -0.7080     2.6300 ca         1 G50      -0.371600
      6 C6           1.8500    -0.8970     2.7140 ca         1 G50       0.282100
      7 C7           4.2410    -1.3040     3.5320 c          1 G50       0.622700
      8 C8           3.8800    -2.3530     4.5530 c3         1 G50      -0.156400
      9 C9           5.0900    -2.9640     5.2570 c3         1 G50      -0.016100
     10 O1           1.3650    -1.6330     3.7170 oh         1 G50      -0.541100
     11 O2           5.4290    -0.9750     3.4350 o          1 G50      -0.597100
     12 C10          4.6630    -4.0080     6.2550 ca         1 G50      -0.120300
     13 C11          4.7800    -3.7950     7.6230 ca         1 G50      -0.068500
     14 C12          4.3670    -4.7460     8.5470 ca         1 G50      -0.174500
     15 C13          3.8110    -5.9440     8.1110 ca         1 G50       0.137100
     16 C14          3.6940    -6.1810     6.7420 ca         1 G50      -0.174500
     17 C15          4.1160    -5.2220     5.8370 ca         1 G50      -0.068500
     18 O3           3.3800    -6.9030     8.9570 oh         1 G50      -0.535100
     19 O4           0.6060     0.9350    -0.1200 oh         1 G50      -0.523100
     20 O5           5.0100     0.3910     1.4180 oh         1 G50      -0.541100
     21 H3           3.2510     1.2670    -0.1790 ha         1 G50       0.136000
     22 H1          -0.0850    -0.4880     1.8840 ha         1 G50       0.136000
     23 H4           1.0500     1.4530    -0.8000 ho         1 G50       0.476000
     24 HA           0.4040    -1.6910     3.6590 ho         1 G50       0.503000
     25 H5           5.4790    -0.0350     2.1850 ho         1 G50       0.503000
     26 H8C1         3.2090    -1.9140     5.2950 hc         1 G50       0.077200
     27 H8C2         3.3020    -3.1360     4.0580 hc         1 G50       0.077200
     28 H9C1         5.7680    -3.4080     4.5240 hc         1 G50       0.058700
     29 H9C2         5.6530    -2.1870     5.7750 hc         1 G50       0.058700
     30 H11          5.2040    -2.8660     7.9860 ha         1 G50       0.112500
     31 H15          4.0180    -5.4300     4.7770 ha         1 G50       0.112500
     32 H12          4.4790    -4.5480     9.6080 ha         1 G50       0.119500
     33 H14          3.2750    -7.1160     6.3920 ha         1 G50       0.119500
     34 HB           3.4980    -6.6230     9.8710 ho         1 G50       0.464000
@<TRIPOS>BOND
     1     1     2 ar  
     2     1     6 ar  
     3     1    22 1   
     4     2     3 ar  
     5     2    19 1   
     6     3     4 ar  
     7     3    21 1   
     8     4     5 ar  
     9     4    20 1   
    10     5     6 ar  
    11     5     7 1   
    12     6    10 1   
    13     7     8 1   
    14     7    11 2   
    15     8     9 1   
    16     8    26 1   
    17     8    27 1   
    18     9    12 1   
    19     9    28 1   
    20     9    29 1   
    21    10    24 1   
    22    12    13 ar  
    23    12    17 ar  
    24    13    14 ar  
    25    13    30 1   
    26    14    15 ar  
    27    14    32 1   
    28    15    16 ar  
    29    15    18 1   
    30    16    17 ar  
    31    16    33 1   
    32    17    31 1   
    33    18    34 1   
    34    19    23 1   
    35    20    25 1   
@<TRIPOS>SUBSTRUCTURE
     1 G50         1 TEMP              0 ****  ****    0 ROOT
