@<TRIPOS>MOLECULE
G51
   57    61     1     0     0
SMALL
bcc


@<TRIPOS>ATOM
      1 O22         -0.7810    -1.7100     0.9560 o          1 G51      -0.650100
      2 C20         -1.3140    -0.6080     1.1000 c          1 G51       0.734700
      3 N21         -2.6240    -0.4640     1.3810 ns         1 G51      -0.567900
      4 C23         -3.5370    -1.5670     1.5780 c3         1 G51       0.150300
      5 C24         -4.8670    -1.3040     0.9220 ca         1 G51      -0.112300
      6 C29         -6.0270    -1.2860     1.6800 ca         1 G51      -0.121000
      7 C28         -7.2850    -1.0510     1.1080 ca         1 G51      -0.118000
      8 C27         -7.3150    -0.8310    -0.2450 ca         1 G51       0.057100
      9 O40         -8.3820    -0.5990    -1.0470 os         1 G51      -0.319900
     10 C41         -7.8510    -0.2520    -2.3190 c5         1 G51       0.327200
     11 O42         -6.4790    -0.6220    -2.3090 os         1 G51      -0.319900
     12 C26         -6.1570    -0.8440    -1.0110 ca         1 G51       0.049100
     13 C25         -4.9230    -1.0760    -0.4640 ca         1 G51      -0.096000
     14 C17         -0.5420     0.6210     0.9710 cc         1 G51      -0.427900
     15 C18         -0.9100     1.9830     1.0780 cc         1 G51       0.377200
     16 N19          0.1100     2.7860     0.9410 nd         1 G51      -0.515800
     17 N4           1.1700     1.9720     0.7250 na         1 G51       0.043400
     18 C3           2.5110     2.4890     0.5740 c6         1 G51       0.010000
     19 C13          2.5230     3.6510    -0.4170 c3         1 G51       0.668900
     20 F57          1.8940     3.3420    -1.5540 f          1 G51      -0.225633
     21 F56          1.9540     4.7550     0.0690 f          1 G51      -0.225633
     22 F58          3.7840     3.9770    -0.7300 f          1 G51      -0.225633
     23 C5           0.8330     0.6690     0.7460 cd         1 G51       0.246300
     24 N6           1.7560    -0.3020     0.5690 nu         1 G51      -0.729600
     25 C1           3.1410     0.0530     0.8270 c6         1 G51       0.271800
     26 C2           3.4320     1.3620     0.0950 c6         1 G51      -0.105400
     27 C7           4.0640    -1.0420     0.3610 ca         1 G51      -0.116300
     28 C12          3.9040    -1.6380    -0.8870 ca         1 G51      -0.104500
     29 C11          4.7810    -2.6240    -1.3120 ca         1 G51      -0.128500
     30 C10          5.8400    -3.0430    -0.5090 ca         1 G51      -0.060300
     31 C32          6.8120    -4.0830    -0.9920 c3         1 G51      -0.035100
     32 C33          8.0030    -3.4580    -1.7180 c3         1 G51      -0.087100
     33 C9           5.9930    -2.4420     0.7370 ca         1 G51      -0.128500
     34 C8           5.1160    -1.4560     1.1680 ca         1 G51      -0.104500
     35 H2          -2.9860     0.4580     1.5640 hn         1 G51       0.314500
     36 H232        -3.0770    -2.4620     1.1590 h1         1 G51       0.062700
     37 H231        -3.6870    -1.7570     2.6440 h1         1 G51       0.062700
     38 H29         -5.9630    -1.4510     2.7480 ha         1 G51       0.136000
     39 H28         -8.1830    -1.0430     1.7110 ha         1 G51       0.153000
     40 H412        -8.3750    -0.8010    -3.1010 h2         1 G51       0.064700
     41 H411        -7.9430     0.8270    -2.4800 h2         1 G51       0.064700
     42 H25         -4.0280    -1.0820    -1.0730 ha         1 G51       0.161000
     43 H18         -1.8920     2.3980     1.2520 h4         1 G51       0.037100
     44 H3           2.8640     2.8720     1.5370 h1         1 G51       0.094700
     45 HN6          1.4510    -1.2230     0.8500 hn         1 G51       0.472800
     46 H1           3.3040     0.2110     1.9010 h1         1 G51       0.045700
     47 H22          3.3160     1.1940    -0.9780 hc         1 G51       0.083700
     48 H21          4.4660     1.6500     0.2790 hc         1 G51       0.083700
     49 H12          3.0850    -1.3380    -1.5300 ha         1 G51       0.138000
     50 H11          4.6360    -3.0780    -2.2860 ha         1 G51       0.134000
     51 H322         7.1730    -4.6700    -0.1450 hc         1 G51       0.048700
     52 H321         6.3020    -4.7790    -1.6620 hc         1 G51       0.048700
     53 H332         7.6770    -2.8760    -2.5810 hc         1 G51       0.036367
     54 H331         8.5590    -2.7920    -1.0570 hc         1 G51       0.036367
     55 H333         8.6890    -4.2280    -2.0730 hc         1 G51       0.036367
     56 H9           6.8010    -2.7570     1.3880 ha         1 G51       0.134000
     57 H8           5.2500    -1.0130     2.1480 ha         1 G51       0.138000
@<TRIPOS>BOND
     1     1     2 2   
     2     2     3 1   
     3     2    14 1   
     4     3     4 1   
     5     3    35 1   
     6     4     5 1   
     7     4    36 1   
     8     4    37 1   
     9     5     6 ar  
    10     5    13 ar  
    11     6     7 ar  
    12     6    38 1   
    13     7     8 ar  
    14     7    39 1   
    15     8     9 1   
    16     8    12 ar  
    17     9    10 1   
    18    10    11 1   
    19    10    40 1   
    20    10    41 1   
    21    11    12 1   
    22    12    13 ar  
    23    13    42 1   
    24    14    15 1   
    25    14    23 2   
    26    15    16 2   
    27    15    43 1   
    28    16    17 1   
    29    17    18 1   
    30    17    23 1   
    31    18    19 1   
    32    18    26 1   
    33    18    44 1   
    34    19    20 1   
    35    19    21 1   
    36    19    22 1   
    37    23    24 1   
    38    24    25 1   
    39    24    45 1   
    40    25    26 1   
    41    25    27 1   
    42    25    46 1   
    43    26    47 1   
    44    26    48 1   
    45    27    28 ar  
    46    27    34 ar  
    47    28    29 ar  
    48    28    49 1   
    49    29    30 ar  
    50    29    50 1   
    51    30    31 1   
    52    30    33 ar  
    53    31    32 1   
    54    31    51 1   
    55    31    52 1   
    56    32    53 1   
    57    32    54 1   
    58    32    55 1   
    59    33    34 ar  
    60    33    56 1   
    61    34    57 1   
@<TRIPOS>SUBSTRUCTURE
     1 G51         1 TEMP              0 ****  ****    0 ROOT
