@<TRIPOS>MOLECULE
G51
   57    61     1     0     0
SMALL
No Charge or Current Charge


@<TRIPOS>ATOM
      1 O22         -0.6550    -1.9750     0.6400 o          1 G51      -0.650100
      2 C20         -1.1950    -0.8810     0.5610 c          1 G51       0.667700
      3 N21         -2.5580    -0.7460     0.5050 ns         1 G51      -0.500900
      4 C23         -3.4960    -1.8630     0.5340 c3         1 G51       0.150300
      5 C24         -4.9300    -1.3710     0.4350 ca         1 G51      -0.112300
      6 C29         -5.6500    -1.0330     1.6100 ca         1 G51      -0.103000
      7 C28         -6.9790    -0.5670     1.5270 ca         1 G51      -0.100000
      8 C27         -7.5590    -0.4520     0.2580 ca         1 G51       0.057100
      9 O40         -8.8170    -0.0150    -0.0050 os         1 G51      -0.343100
     10 C41         -8.9080    -0.1500    -1.4680 c5         1 G51       0.373600
     11 O42         -7.6050    -0.5800    -2.0010 os         1 G51      -0.343100
     12 C26         -6.8700    -0.7740    -0.8770 ca         1 G51       0.049100
     13 C25         -5.5480    -1.2360    -0.8300 ca         1 G51      -0.078000
     14 C17         -0.4680     0.3870     0.5200 cc         1 G51      -0.362600
     15 C18         -1.0040     1.6850     0.4500 cc         1 G51       0.311900
     16 N19         -0.1010     2.6530     0.4470 nd         1 G51      -0.515800
     17 N4           1.0860     1.9290     0.4980 na         1 G51       0.064800
     18 C3           2.4480     2.5270     0.5680 c6         1 G51       0.039300
     19 C13          2.6310     3.8390    -0.2620 c3         1 G51       0.305000
     20 F57          2.2970     3.6650    -1.5620 f          1 G51      -0.104333
     21 F56          1.8760     4.8540     0.2180 f          1 G51      -0.104333
     22 F58          3.9150     4.2660    -0.2360 f          1 G51      -0.104333
     23 C5           0.8680     0.5530     0.5550 cd         1 G51       0.334000
     24 N6           1.8770    -0.3600     0.6430 nu         1 G51      -0.923200
     25 C1           3.2550     0.0720     0.8980 c6         1 G51       0.271800
     26 C2           3.5000     1.4300     0.1760 c6         1 G51      -0.105400
     27 C7           4.2440    -1.0140     0.4600 ca         1 G51      -0.116300
     28 C12          4.2560    -1.4900    -0.8680 ca         1 G51      -0.086500
     29 C11          5.1720    -2.4820    -1.2600 ca         1 G51      -0.110500
     30 C10          6.0850    -3.0130    -0.3310 ca         1 G51      -0.060300
     31 C32          7.0800    -4.0840    -0.7580 c3         1 G51      -0.035100
     32 C33          8.3990    -3.4800    -1.2730 c3         1 G51      -0.087100
     33 C9           6.0750    -2.5400     0.9940 ca         1 G51      -0.110500
     34 C8           5.1600    -1.5480     1.3880 ca         1 G51      -0.086500
     35 H2          -2.9310     0.1910     0.4410 hn         1 G51       0.314500
     36 H232        -3.2740    -2.5390    -0.3030 h1         1 G51       0.062700
     37 H231        -3.3570    -2.4240     1.4680 h1         1 G51       0.062700
     38 H29         -5.1760    -1.1290     2.5850 ha         1 G51       0.118000
     39 H28         -7.5390    -0.3030     2.4210 ha         1 G51       0.135000
     40 H412        -9.6630    -0.9070    -1.7120 h2         1 G51       0.064700
     41 H411        -9.1860     0.8140    -1.9100 h2         1 G51       0.064700
     42 H25         -5.0180    -1.4800    -1.7470 ha         1 G51       0.143000
     43 H18         -2.0490     1.9640     0.4110 h4         1 G51       0.037100
     44 H3           2.6170     2.7920     1.6210 h1         1 G51       0.094700
     45 HN6          1.5940    -1.3330     0.7900 hn         1 G51       0.528000
     46 H1           3.3780     0.2390     1.9790 h1         1 G51       0.045700
     47 H22          3.4710     1.2700    -0.9100 hc         1 G51       0.083700
     48 H21          4.5150     1.7780     0.4070 hc         1 G51       0.083700
     49 H12          3.5530    -1.0930    -1.5970 ha         1 G51       0.120000
     50 H11          5.1700    -2.8370    -2.2880 ha         1 G51       0.116000
     51 H322         7.3000    -4.7550     0.0830 hc         1 G51       0.048700
     52 H321         6.6460    -4.7140    -1.5440 hc         1 G51       0.048700
     53 H332         8.2160    -2.8370    -2.1420 hc         1 G51       0.036367
     54 H331         8.8790    -2.8780    -0.4920 hc         1 G51       0.036367
     55 H333         9.0940    -4.2730    -1.5720 hc         1 G51       0.036367
     56 H9           6.7780    -2.9400     1.7220 ha         1 G51       0.116000
     57 H8           5.1660    -1.1940     2.4170 ha         1 G51       0.120000
@<TRIPOS>BOND
     1     1     2 2   
     2     2     3 1   
     3     2    14 1   
     4     3     4 1   
     5     3    35 1   
     6     4     5 1   
     7     4    36 1   
     8     4    37 1   
     9     5     6 ar  
    10     5    13 ar  
    11     6     7 ar  
    12     6    38 1   
    13     7     8 ar  
    14     7    39 1   
    15     8     9 1   
    16     8    12 ar  
    17     9    10 1   
    18    10    11 1   
    19    10    40 1   
    20    10    41 1   
    21    11    12 1   
    22    12    13 ar  
    23    13    42 1   
    24    14    15 1   
    25    14    23 2   
    26    15    16 2   
    27    15    43 1   
    28    16    17 1   
    29    17    18 1   
    30    17    23 1   
    31    18    19 1   
    32    18    26 1   
    33    18    44 1   
    34    19    20 1   
    35    19    21 1   
    36    19    22 1   
    37    23    24 1   
    38    24    25 1   
    39    24    45 1   
    40    25    26 1   
    41    25    27 1   
    42    25    46 1   
    43    26    47 1   
    44    26    48 1   
    45    27    28 ar  
    46    27    34 ar  
    47    28    29 ar  
    48    28    49 1   
    49    29    30 ar  
    50    29    50 1   
    51    30    31 1   
    52    30    33 ar  
    53    31    32 1   
    54    31    51 1   
    55    31    52 1   
    56    32    53 1   
    57    32    54 1   
    58    32    55 1   
    59    33    34 ar  
    60    33    56 1   
    61    34    57 1   
@<TRIPOS>SUBSTRUCTURE
     1 G51         1 TEMP              0 ****  ****    0 ROOT
