@<TRIPOS>MOLECULE
G52
   82    86     1     0     0
SMALL
abcg2


@<TRIPOS>ATOM
      1 C2           8.0760     0.2430     1.3250 ca         1 G52       0.197100
      2 C3           7.5910     1.5340     1.1210 ca         1 G52      -0.200500
      3 C4           6.2240     1.7500     1.0220 ca         1 G52       0.029000
      4 C5           5.3450     0.6850     1.1200 ca         1 G52      -0.327500
      5 C6           5.8230    -0.6090     1.3250 ca         1 G52       0.029000
      6 C7           7.1770    -0.8280     1.4270 ca         1 G52      -0.200500
      7 S8           3.6060     0.9380     1.0030 sy         1 G52       1.181600
      8 O9           2.9450     0.1390     2.0280 o          1 G52      -0.542500
      9 O10          3.3690     2.3770     0.9920 o          1 G52      -0.542500
     10 N11          3.2220     0.2570    -0.4440 n3         1 G52      -0.774500
     11 C12          3.7500     0.9040    -1.6440 c3         1 G52       0.223800
     12 C13          4.2200    -0.0880    -2.7080 c3         1 G52      -0.070700
     13 C14          4.8190     0.6990    -3.8690 c3         1 G52      -0.088100
     14 C15          5.2200    -1.0900    -2.1460 c3         1 G52      -0.088100
     15 C16          2.0360    -0.5810    -0.5320 c3         1 G52       0.192800
     16 C17          0.7020     0.1420    -0.3460 c3         1 G52       0.127300
     17 O18          0.5080     1.1900    -1.2680 oh         1 G52      -0.645000
     18 C19         -0.4620    -0.8590    -0.3440 c3         1 G52       0.093700
     19 N20         -1.6780    -0.1830     0.0480 ns         1 G52      -0.479900
     20 C21         -2.5950    -0.7710     0.8450 c          1 G52       0.643100
     21 O22         -2.4100    -1.7470     1.5380 o          1 G52      -0.532000
     22 O23         -3.7570    -0.1030     0.7910 os         1 G52      -0.457100
     23 C24         -4.8630    -0.6460     1.5050 c5         1 G52       0.166300
     24 C25         -4.8940    -0.1500     2.9380 c5         1 G52       0.135600
     25 O26         -5.4530     1.1520     2.8750 os         1 G52      -0.448000
     26 C27         -6.3320     1.2410     1.7870 c5         1 G52       0.390300
     27 O28         -5.9980     2.3280     0.9720 os         1 G52      -0.466000
     28 C29         -5.6460     1.9260    -0.3420 c5         1 G52       0.393300
     29 C30         -6.1220     0.4790    -0.4770 c5         1 G52      -0.113700
     30 C31         -6.1480    -0.0340     0.9490 c5         1 G52      -0.130700
     31 C32         -0.6560    -1.5770    -1.6940 c3         1 G52      -0.062100
     32 C33         -3.0970    -2.0900    -2.0400 ca         1 G52      -0.099500
     33 C34         -4.1950    -2.9330    -1.9270 ca         1 G52      -0.107000
     34 C35         -4.0370    -4.2200    -1.4330 ca         1 G52      -0.106000
     35 C36         -2.7730    -4.6600    -1.0600 ca         1 G52      -0.107000
     36 C37         -1.6810    -3.8110    -1.1680 ca         1 G52      -0.099500
     37 C38         -1.8280    -2.5150    -1.6550 ca         1 G52      -0.087300
     38 O39          9.3710    -0.0660     1.4360 os         1 G52      -0.335100
     39 C40         10.3320     0.9740     1.3710 c3         1 G52       0.145900
     40 O41         -6.3290     2.6940    -1.2750 os         1 G52      -0.449000
     41 C42         -7.3500     1.9300    -1.9170 c5         1 G52       0.156600
     42 C43         -7.5110     0.6620    -1.0950 c5         1 G52      -0.113400
     43 H3           8.2560     2.3820     1.0390 ha         1 G52       0.128000
     44 H4           5.8600     2.7560     0.8640 ha         1 G52       0.134500
     45 H6           5.1430    -1.4470     1.4000 ha         1 G52       0.134500
     46 H7           7.5560    -1.8290     1.5880 ha         1 G52       0.128000
     47 H12          3.0180     1.5960    -2.0680 h1         1 G52       0.053200
     48 H12A         4.6160     1.5060    -1.3570 h1         1 G52       0.053200
     49 H13          3.3560    -0.6360    -3.0970 hc         1 G52       0.042700
     50 H14          5.7170     1.2370    -3.5550 hc         1 G52       0.036367
     51 H14A         5.1000     0.0320    -4.6850 hc         1 G52       0.036367
     52 H14B         4.1150     1.4300    -4.2690 hc         1 G52       0.036367
     53 H15          6.0880    -0.5800    -1.7220 hc         1 G52       0.036367
     54 H15A         4.7830    -1.7060    -1.3590 hc         1 G52       0.036367
     55 H15B         5.5760    -1.7590    -2.9310 hc         1 G52       0.036367
     56 H16          2.0770    -1.0600    -1.5120 h1         1 G52       0.066200
     57 H16A         2.1050    -1.3940     0.1920 h1         1 G52       0.066200
     58 H17          0.7000     0.6190     0.6370 h1         1 G52       0.107700
     59 HO18         0.5500     0.8430    -2.1650 ho         1 G52       0.435000
     60 H19         -0.2490    -1.6070     0.4210 h1         1 G52       0.098700
     61 HN20        -1.9860     0.5820    -0.5330 hn         1 G52       0.328500
     62 H24         -4.8650    -1.7340     1.4360 h1         1 G52       0.085700
     63 H25         -5.5190    -0.8190     3.5410 h1         1 G52       0.067200
     64 H25A        -3.9100    -0.0940     3.4070 h1         1 G52       0.067200
     65 H27         -7.3510     1.3860     2.1620 h2         1 G52       0.078700
     66 H29         -4.5730     2.0790    -0.4880 h2         1 G52       0.095700
     67 H30         -5.4750    -0.1010    -1.1360 hc         1 G52       0.083700
     68 H31         -6.9600    -0.7440     1.1170 hc         1 G52       0.080700
     69 H32         -0.8080    -0.8390    -2.4870 hc         1 G52       0.050200
     70 H32A         0.2510    -2.1310    -1.9460 hc         1 G52       0.050200
     71 H34         -5.1750    -2.5840    -2.2290 ha         1 G52       0.112500
     72 H35         -4.8900    -4.8800    -1.3460 ha         1 G52       0.113000
     73 H36         -2.6380    -5.6650    -0.6810 ha         1 G52       0.112500
     74 H37         -0.7000    -4.1580    -0.8640 ha         1 G52       0.109500
     75 H40         11.3020     0.5040     1.5130 h1         1 G52       0.047033
     76 H40A        10.3210     1.4750     0.4000 h1         1 G52       0.047033
     77 H40B        10.1780     1.7170     2.1570 h1         1 G52       0.047033
     78 H42         -8.2650     2.5210    -1.9690 h1         1 G52       0.048700
     79 H42A        -7.0370     1.7020    -2.9410 h1         1 G52       0.048700
     80 H43         -7.8100    -0.1910    -1.7030 hc         1 G52       0.057700
     81 H43A        -8.2700     0.7950    -0.3210 hc         1 G52       0.057700
     82 H33         -3.2310    -1.0890    -2.4360 ha         1 G52       0.109500
@<TRIPOS>BOND
     1     1     2 ar  
     2     1     6 ar  
     3     1    38 1   
     4     2     3 ar  
     5     2    43 1   
     6     3     4 ar  
     7     3    44 1   
     8     4     5 ar  
     9     4     7 1   
    10     5     6 ar  
    11     5    45 1   
    12     6    46 1   
    13     7     8 2   
    14     7     9 2   
    15     7    10 1   
    16    10    11 1   
    17    10    15 1   
    18    11    12 1   
    19    11    47 1   
    20    11    48 1   
    21    12    13 1   
    22    12    14 1   
    23    12    49 1   
    24    13    50 1   
    25    13    51 1   
    26    13    52 1   
    27    14    53 1   
    28    14    54 1   
    29    14    55 1   
    30    15    16 1   
    31    15    56 1   
    32    15    57 1   
    33    16    17 1   
    34    16    18 1   
    35    16    58 1   
    36    17    59 1   
    37    18    19 1   
    38    18    31 1   
    39    18    60 1   
    40    19    20 1   
    41    19    61 1   
    42    20    21 2   
    43    20    22 1   
    44    22    23 1   
    45    23    24 1   
    46    23    30 1   
    47    23    62 1   
    48    24    25 1   
    49    24    63 1   
    50    24    64 1   
    51    25    26 1   
    52    26    27 1   
    53    26    30 1   
    54    26    65 1   
    55    27    28 1   
    56    28    29 1   
    57    28    40 1   
    58    28    66 1   
    59    29    30 1   
    60    29    42 1   
    61    29    67 1   
    62    30    68 1   
    63    31    37 1   
    64    31    69 1   
    65    31    70 1   
    66    32    33 ar  
    67    32    37 ar  
    68    32    82 1   
    69    33    34 ar  
    70    33    71 1   
    71    34    35 ar  
    72    34    72 1   
    73    35    36 ar  
    74    35    73 1   
    75    36    37 ar  
    76    36    74 1   
    77    38    39 1   
    78    39    75 1   
    79    39    76 1   
    80    39    77 1   
    81    40    41 1   
    82    41    42 1   
    83    41    78 1   
    84    41    79 1   
    85    42    80 1   
    86    42    81 1   
@<TRIPOS>SUBSTRUCTURE
     1 G52         1 TEMP              0 ****  ****    0 ROOT
