@<TRIPOS>MOLECULE
G52
   82    86     1     0     0
SMALL
No Charge or Current Charge


@<TRIPOS>ATOM
      1 C2           8.0550     0.7980     1.3610 ca         1 G52       0.197100
      2 C3           7.0960     1.7790     1.6890 ca         1 G52      -0.200500
      3 C4           5.7270     1.4610     1.6730 ca         1 G52       0.029000
      4 C5           5.3140     0.1590     1.3320 ca         1 G52      -0.327500
      5 C6           6.2680    -0.8210     1.0020 ca         1 G52       0.029000
      6 C7           7.6340    -0.4960     1.0190 ca         1 G52      -0.200500
      7 S8           3.5680    -0.2620     1.2810 sy         1 G52       1.181600
      8 O9           3.4200    -1.5400     1.9850 o          1 G52      -0.542500
      9 O10          2.7450     0.9060     1.6100 o          1 G52      -0.542500
     10 N11          3.3340    -0.6160    -0.3690 n3         1 G52      -0.774500
     11 C12          3.6950     0.4910    -1.2920 c3         1 G52       0.223800
     12 C13          3.9510     0.0670    -2.7640 c3         1 G52      -0.070700
     13 C14          4.2690     1.2960    -3.6450 c3         1 G52      -0.088100
     14 C15          5.0670    -1.0000    -2.8780 c3         1 G52      -0.088100
     15 C16          2.0790    -1.3610    -0.6850 c3         1 G52       0.192800
     16 C17          0.7250    -0.5750    -0.6040 c3         1 G52       0.127300
     17 O18          0.5620     0.3330    -1.7210 oh         1 G52      -0.645000
     18 C19         -0.5170    -1.5140    -0.5010 c3         1 G52       0.093700
     19 N20         -1.7370    -0.7220    -0.3050 ns         1 G52      -0.479900
     20 C21         -2.7020    -0.9770     0.6270 c          1 G52       0.643100
     21 O22         -2.6490    -1.8590     1.4710 o          1 G52      -0.532000
     22 O23         -3.7260    -0.0930     0.4380 os         1 G52      -0.457100
     23 C24         -4.8450    -0.2420     1.3620 c5         1 G52       0.166300
     24 C25         -4.4500     0.3970     2.7230 c5         1 G52       0.135600
     25 O26         -4.6060     1.8070     2.4750 os         1 G52      -0.448000
     26 C27         -5.8570     1.9710     1.7880 c5         1 G52       0.390300
     27 O28         -5.7140     3.0530     0.8500 os         1 G52      -0.466000
     28 C29         -5.1400     2.5010    -0.3490 c5         1 G52       0.393300
     29 C30         -5.9110     1.1800    -0.5460 c5         1 G52      -0.113700
     30 C31         -6.0600     0.6710     0.9330 c5         1 G52      -0.130700
     31 C32         -0.6940    -2.4920    -1.6970 c3         1 G52      -0.062100
     32 C33         -3.1230    -3.0690    -2.2060 ca         1 G52      -0.099500
     33 C34         -4.2540    -3.8900    -2.0540 ca         1 G52      -0.107000
     34 C35         -4.1860    -5.0390    -1.2480 ca         1 G52      -0.106000
     35 C36         -2.9870    -5.3660    -0.5940 ca         1 G52      -0.107000
     36 C37         -1.8560    -4.5450    -0.7440 ca         1 G52      -0.099500
     37 C38         -1.9170    -3.3920    -1.5510 ca         1 G52      -0.087300
     38 O39          9.4110     1.0540     1.3570 os         1 G52      -0.335100
     39 C40          9.9480     2.3470     1.6900 c3         1 G52       0.145900
     40 O41         -5.5330     3.3260    -1.4650 os         1 G52      -0.449000
     41 C42         -6.8100     2.8660    -1.9840 c5         1 G52       0.156600
     42 C43         -7.2840     1.7250    -1.0410 c5         1 G52      -0.113400
     43 H3           7.3900     2.7890     1.9560 ha         1 G52       0.128000
     44 H4           4.9960     2.2290     1.9250 ha         1 G52       0.134500
     45 H6           5.9540    -1.8270     0.7260 ha         1 G52       0.134500
     46 H7           8.3710    -1.2520     0.7620 ha         1 G52       0.128000
     47 H12          2.9200     1.2680    -1.2700 h1         1 G52       0.053200
     48 H12A         4.6170     0.9800    -0.9540 h1         1 G52       0.053200
     49 H13          3.0300    -0.3730    -3.1640 hc         1 G52       0.042700
     50 H14          5.1910     1.7880    -3.3120 hc         1 G52       0.036367
     51 H14A         4.3980     1.0000    -4.6930 hc         1 G52       0.036367
     52 H14B         3.4530     2.0270    -3.5990 hc         1 G52       0.036367
     53 H15          6.0130    -0.6180    -2.4750 hc         1 G52       0.036367
     54 H15A         4.8010    -1.9080    -2.3240 hc         1 G52       0.036367
     55 H15B         5.2290    -1.2820    -3.9250 hc         1 G52       0.036367
     56 H16          2.1580    -1.8000    -1.6880 h1         1 G52       0.066200
     57 H16A         2.0000    -2.2240    -0.0100 h1         1 G52       0.066200
     58 H17          0.7380     0.0020     0.3300 h1         1 G52       0.107700
     59 HO18         0.6120    -0.1960    -2.5450 ho         1 G52       0.435000
     60 H19         -0.3720    -2.1300     0.3980 h1         1 G52       0.098700
     61 HN20        -1.9150     0.0560    -0.9260 hn         1 G52       0.328500
     62 H24         -5.1340    -1.3000     1.4420 h1         1 G52       0.085700
     63 H25         -5.1330     0.0910     3.5270 h1         1 G52       0.067200
     64 H25A        -3.4200     0.1790     3.0330 h1         1 G52       0.067200
     65 H27         -6.6780     2.1480     2.4960 h2         1 G52       0.078700
     66 H29         -4.0510     2.3780    -0.2640 h2         1 G52       0.095700
     67 H30         -5.4450     0.4860    -1.2550 hc         1 G52       0.083700
     68 H31         -7.0220     0.1870     1.1360 hc         1 G52       0.080700
     69 H32         -0.7660    -1.9200    -2.6300 hc         1 G52       0.050200
     70 H32A         0.2010    -3.1180    -1.7950 hc         1 G52       0.050200
     71 H34         -5.1830    -3.6340    -2.5590 ha         1 G52       0.112500
     72 H35         -5.0620    -5.6740    -1.1300 ha         1 G52       0.113000
     73 H36         -2.9330    -6.2540     0.0320 ha         1 G52       0.112500
     74 H37         -0.9330    -4.8020    -0.2300 ha         1 G52       0.109500
     75 H40         11.0430     2.3320     1.6250 h1         1 G52       0.047033
     76 H40A         9.5780     3.1130     0.9970 h1         1 G52       0.047033
     77 H40B         9.6730     2.6330     2.7130 h1         1 G52       0.047033
     78 H42         -7.5220     3.7000    -2.0240 h1         1 G52       0.048700
     79 H42A        -6.6510     2.4940    -3.0050 h1         1 G52       0.048700
     80 H43         -7.8740     0.9660    -1.5690 hc         1 G52       0.057700
     81 H43A        -7.9150     2.1230    -0.2370 hc         1 G52       0.057700
     82 H33         -3.1860    -2.1780    -2.8260 ha         1 G52       0.109500
@<TRIPOS>BOND
     1     1     2 ar  
     2     1     6 ar  
     3     1    38 1   
     4     2     3 ar  
     5     2    43 1   
     6     3     4 ar  
     7     3    44 1   
     8     4     5 ar  
     9     4     7 1   
    10     5     6 ar  
    11     5    45 1   
    12     6    46 1   
    13     7     8 2   
    14     7     9 2   
    15     7    10 1   
    16    10    11 1   
    17    10    15 1   
    18    11    12 1   
    19    11    47 1   
    20    11    48 1   
    21    12    13 1   
    22    12    14 1   
    23    12    49 1   
    24    13    50 1   
    25    13    51 1   
    26    13    52 1   
    27    14    53 1   
    28    14    54 1   
    29    14    55 1   
    30    15    16 1   
    31    15    56 1   
    32    15    57 1   
    33    16    17 1   
    34    16    18 1   
    35    16    58 1   
    36    17    59 1   
    37    18    19 1   
    38    18    31 1   
    39    18    60 1   
    40    19    20 1   
    41    19    61 1   
    42    20    21 2   
    43    20    22 1   
    44    22    23 1   
    45    23    24 1   
    46    23    30 1   
    47    23    62 1   
    48    24    25 1   
    49    24    63 1   
    50    24    64 1   
    51    25    26 1   
    52    26    27 1   
    53    26    30 1   
    54    26    65 1   
    55    27    28 1   
    56    28    29 1   
    57    28    40 1   
    58    28    66 1   
    59    29    30 1   
    60    29    42 1   
    61    29    67 1   
    62    30    68 1   
    63    31    37 1   
    64    31    69 1   
    65    31    70 1   
    66    32    33 ar  
    67    32    37 ar  
    68    32    82 1   
    69    33    34 ar  
    70    33    71 1   
    71    34    35 ar  
    72    34    72 1   
    73    35    36 ar  
    74    35    73 1   
    75    36    37 ar  
    76    36    74 1   
    77    38    39 1   
    78    39    75 1   
    79    39    76 1   
    80    39    77 1   
    81    40    41 1   
    82    41    42 1   
    83    41    78 1   
    84    41    79 1   
    85    42    80 1   
    86    42    81 1   
@<TRIPOS>SUBSTRUCTURE
     1 G52         1 TEMP              0 ****  ****    0 ROOT
