@<TRIPOS>MOLECULE
G53
   85    89     1     0     0
SMALL
No Charge or Current Charge


@<TRIPOS>ATOM
      1 C2           5.9700    -0.2870     0.6950 ca         1 G53      -0.082500
      2 C3           5.1230     0.5560     1.4480 ca         1 G53      -0.096500
      3 C4           3.7260     0.4010     1.4050 ca         1 G53      -0.021500
      4 C5           3.1550    -0.6080     0.6050 ca         1 G53      -0.263500
      5 C6           3.9880    -1.4530    -0.1510 ca         1 G53      -0.021500
      6 C7           5.3830    -1.2940    -0.1060 ca         1 G53      -0.096500
      7 S8           1.3660    -0.8060     0.5120 sy         1 G53       1.187600
      8 O9           1.0880    -2.2400     0.6550 o          1 G53      -0.537000
      9 O10          0.6880     0.2010     1.3340 o          1 G53      -0.537000
     10 N11          1.0470    -0.4400    -1.1220 n3         1 G53      -0.790500
     11 C12          1.5080     0.9060    -1.5500 c3         1 G53       0.230800
     12 C13          1.6760     1.0880    -3.0830 c3         1 G53      -0.074700
     13 C14          2.1100     2.5320    -3.4240 c3         1 G53      -0.089600
     14 C15          2.6590     0.0570    -3.6890 c3         1 G53      -0.089600
     15 C16         -0.2930    -0.8720    -1.6190 c3         1 G53       0.201800
     16 C17         -1.5460    -0.0620    -1.1360 c3         1 G53       0.134300
     17 O18         -1.6320     1.2320    -1.7800 oh         1 G53      -0.649000
     18 C19         -2.8850    -0.8390    -1.3310 c3         1 G53       0.092700
     19 N20         -4.0000    -0.0840    -0.7450 ns         1 G53      -0.478900
     20 C21         -4.9650    -0.6040     0.0690 c          1 G53       0.642100
     21 O22         -5.0020    -1.7590     0.4670 o          1 G53      -0.526000
     22 O23         -5.8600     0.3860     0.3620 os         1 G53      -0.453100
     23 C24         -6.9460    -0.0140     1.2440 c5         1 G53       0.164300
     24 C25         -6.4450    -0.1720     2.7080 c5         1 G53       0.129600
     25 O26         -7.6600    -0.0210     3.4720 os         1 G53      -0.444000
     26 C27         -8.4240     1.0530     2.8870 c5         1 G53       0.375300
     27 O28         -8.0270     2.2820     3.5280 os         1 G53      -0.463000
     28 C29         -7.9760     3.2930     2.5090 c5         1 G53       0.154600
     29 C30         -7.2060     2.5680     1.3900 c5         1 G53      -0.103400
     30 C31         -7.9480     1.1800     1.4010 c5         1 G53      -0.132700
     31 C32         -3.2040    -1.2240    -2.8040 c3         1 G53      -0.060100
     32 C33         -5.6910    -1.3560    -3.3450 ca         1 G53      -0.098500
     33 C34         -6.8920    -2.0770    -3.4570 ca         1 G53      -0.106000
     34 C35         -6.9180    -3.4520    -3.1700 ca         1 G53      -0.104000
     35 C36         -5.7400    -4.1060    -2.7700 ca         1 G53      -0.106000
     36 C37         -4.5380    -3.3850    -2.6570 ca         1 G53      -0.098500
     37 C38         -4.5070    -2.0060    -2.9430 ca         1 G53      -0.090300
     38 C39          7.4290    -0.1150     0.7450 cc         1 G53       0.480500
     39 O40          8.2160    -0.9480     0.0040 os         1 G53      -0.246000
     40 C41          9.4800    -0.5250     0.2740 cc         1 G53       0.182900
     41 C42          9.4280     0.5280     1.1490 cd         1 G53       0.179500
     42 N43          8.0940     0.7880     1.4510 nd         1 G53      -0.620000
     43 C44         10.6750     1.2040     1.6290 c          1 G53       0.535600
     44 O45         11.8000     0.8640     1.2760 o          1 G53      -0.490000
     45 O46         10.4540     2.2420     2.5040 os         1 G53      -0.406100
     46 C47         11.5920     2.9560     3.0230 c3         1 G53       0.149900
     47 H1           5.5460     1.3410     2.0720 ha         1 G53       0.138000
     48 H2           3.0970     1.0690     1.9920 ha         1 G53       0.139500
     49 H3           3.5550    -2.2280    -0.7820 ha         1 G53       0.139500
     50 H4           6.0050    -1.9590    -0.7020 ha         1 G53       0.138000
     51 H5           0.8270     1.6780    -1.1670 h1         1 G53       0.056700
     52 H6           2.4890     1.1290    -1.1100 h1         1 G53       0.056700
     53 H7           0.7010     0.9360    -3.5590 hc         1 G53       0.043700
     54 H8           3.0900     2.7590    -2.9870 hc         1 G53       0.037533
     55 H9           2.1770     2.6720    -4.5090 hc         1 G53       0.037533
     56 H10          1.3850     3.2570    -3.0340 hc         1 G53       0.037533
     57 H11          2.3050    -0.9670    -3.5240 hc         1 G53       0.037533
     58 H12          2.7600     0.2070    -4.7710 hc         1 G53       0.037533
     59 H13          3.6530     0.1530    -3.2340 hc         1 G53       0.037533
     60 H14         -0.2920    -0.8730    -2.7160 h1         1 G53       0.064200
     61 H15         -0.4530    -1.9230    -1.3410 h1         1 G53       0.064200
     62 H16         -1.4430     0.0830    -0.0520 h1         1 G53       0.105700
     63 H17         -1.6830     1.0810    -2.7470 ho         1 G53       0.436000
     64 H18         -2.7870    -1.7790    -0.7680 h1         1 G53       0.098700
     65 H19         -4.0910     0.8980    -0.9700 hn         1 G53       0.326500
     66 H20         -7.4440    -0.9210     0.8720 h1         1 G53       0.075700
     67 H21         -5.9980    -1.1540     2.9060 h1         1 G53       0.070200
     68 H22         -5.7320     0.6130     2.9930 h1         1 G53       0.070200
     69 H23         -9.5060     0.8840     2.9790 h2         1 G53       0.085700
     70 H24         -8.9970     3.5650     2.2070 h1         1 G53       0.049200
     71 H25         -7.4570     4.1860     2.8830 h1         1 G53       0.049200
     72 H26         -7.2840     3.0810     0.4250 hc         1 G53       0.065200
     73 H27         -6.1430     2.5110     1.6500 hc         1 G53       0.065200
     74 H28         -8.7840     1.1360     0.6940 hc         1 G53       0.075700
     75 H29         -3.2500    -0.3170    -3.4180 hc         1 G53       0.047700
     76 H30         -2.3830    -1.8250    -3.2130 hc         1 G53       0.047700
     77 H32         -7.8040    -1.5690    -3.7650 ha         1 G53       0.113500
     78 H33         -7.8480    -4.0090    -3.2560 ha         1 G53       0.114000
     79 H34         -5.7580    -5.1700    -2.5460 ha         1 G53       0.113500
     80 H35         -3.6320    -3.8980    -2.3420 ha         1 G53       0.109000
     81 H36         10.3040    -1.0370    -0.2040 h4         1 G53       0.085100
     82 H37         12.2560     2.2830     3.5810 h1         1 G53       0.051367
     83 H38         12.1680     3.4180     2.2110 h1         1 G53       0.051367
     84 H39         11.2660     3.7520     3.7040 h1         1 G53       0.051367
     85 H31         -5.6820    -0.2910    -3.5630 ha         1 G53       0.109000
@<TRIPOS>BOND
     1     1     2 ar  
     2     1     6 ar  
     3     1    38 1   
     4     2     3 ar  
     5     2    47 1   
     6     3     4 ar  
     7     3    48 1   
     8     4     5 ar  
     9     4     7 1   
    10     5     6 ar  
    11     5    49 1   
    12     6    50 1   
    13     7     8 2   
    14     7     9 2   
    15     7    10 1   
    16    10    11 1   
    17    10    15 1   
    18    11    12 1   
    19    11    51 1   
    20    11    52 1   
    21    12    13 1   
    22    12    14 1   
    23    12    53 1   
    24    13    54 1   
    25    13    55 1   
    26    13    56 1   
    27    14    57 1   
    28    14    58 1   
    29    14    59 1   
    30    15    16 1   
    31    15    60 1   
    32    15    61 1   
    33    16    17 1   
    34    16    18 1   
    35    16    62 1   
    36    17    63 1   
    37    18    19 1   
    38    18    31 1   
    39    18    64 1   
    40    19    20 1   
    41    19    65 1   
    42    20    21 2   
    43    20    22 1   
    44    22    23 1   
    45    23    24 1   
    46    23    30 1   
    47    23    66 1   
    48    24    25 1   
    49    24    67 1   
    50    24    68 1   
    51    25    26 1   
    52    26    27 1   
    53    26    30 1   
    54    26    69 1   
    55    27    28 1   
    56    28    29 1   
    57    28    70 1   
    58    28    71 1   
    59    29    30 1   
    60    29    72 1   
    61    29    73 1   
    62    30    74 1   
    63    31    37 1   
    64    31    75 1   
    65    31    76 1   
    66    32    33 ar  
    67    32    37 ar  
    68    32    85 1   
    69    33    34 ar  
    70    33    77 1   
    71    34    35 ar  
    72    34    78 1   
    73    35    36 ar  
    74    35    79 1   
    75    36    37 ar  
    76    36    80 1   
    77    38    39 1   
    78    38    42 2   
    79    39    40 1   
    80    40    41 2   
    81    40    81 1   
    82    41    42 1   
    83    41    43 1   
    84    43    44 2   
    85    43    45 1   
    86    45    46 1   
    87    46    82 1   
    88    46    83 1   
    89    46    84 1   
@<TRIPOS>SUBSTRUCTURE
     1 G53         1 TEMP              0 ****  ****    0 ROOT
