@<TRIPOS>MOLECULE
G53
   85    89     1     0     0
SMALL
bcc


@<TRIPOS>ATOM
      1 C2           5.8450    -0.2580     0.7490 ca         1 G53      -0.082500
      2 C3           5.5430     1.0750     1.0200 ca         1 G53      -0.114500
      3 C4           4.2280     1.4730     1.1910 ca         1 G53      -0.039500
      4 C5           3.2160     0.5300     1.0810 ca         1 G53      -0.263500
      5 C6           3.5030    -0.8030     0.8220 ca         1 G53      -0.039500
      6 C7           4.8170    -1.1970     0.6560 ca         1 G53      -0.114500
      7 S8           1.5170     1.0190     1.2310 sy         1 G53       1.329200
      8 O9           0.7970    -0.0590     1.8930 o          1 G53      -0.607800
      9 O10          1.5030     2.3500     1.8190 o          1 G53      -0.607800
     10 N11          0.9900     1.0740    -0.3180 n3         1 G53      -0.790500
     11 C12          1.4660     2.1630    -1.1710 c3         1 G53       0.230800
     12 C13          1.9370     1.7100    -2.5520 c3         1 G53      -0.074700
     13 C14          2.4960     2.9250    -3.2870 c3         1 G53      -0.089600
     14 C15          2.9720     0.5970    -2.4720 c3         1 G53      -0.089600
     15 C16         -0.1260     0.2410    -0.7370 c3         1 G53       0.201800
     16 C17         -1.4950     0.7540    -0.2970 c3         1 G53       0.111100
     17 O18         -1.7760     2.0430    -0.7930 oh         1 G53      -0.586800
     18 C19         -2.6040    -0.2540    -0.6360 c3         1 G53       0.092700
     19 N20         -3.8630     0.2590    -0.1450 ns         1 G53      -0.545900
     20 C21         -4.8150    -0.5460     0.3670 c          1 G53       0.758100
     21 O22         -4.6550    -1.6880     0.7390 o          1 G53      -0.575000
     22 O23         -5.9860     0.1050     0.4460 os         1 G53      -0.429900
     23 C24         -7.1280    -0.6530     0.8030 c5         1 G53       0.141100
     24 C25         -7.2550    -0.9650     2.2920 c5         1 G53       0.106400
     25 O26         -8.6390    -1.2110     2.4620 os         1 G53      -0.397600
     26 C27         -9.3800    -0.4320     1.5620 c5         1 G53       0.328900
     27 O28         -9.9920     0.6440     2.2190 os         1 G53      -0.416600
     28 C29         -9.6930     1.8570     1.5430 c5         1 G53       0.131400
     29 C30         -8.3250     1.6350     0.9200 c5         1 G53      -0.103400
     30 C31         -8.3910     0.1540     0.5390 c5         1 G53      -0.132700
     31 C32         -2.6910    -0.5850    -2.1400 c3         1 G53      -0.060100
     32 C33         -5.0970    -0.9750    -2.7710 ca         1 G53      -0.116500
     33 C34         -6.1850    -1.8140    -2.9720 ca         1 G53      -0.124000
     34 C35         -6.0330    -3.1890    -2.8590 ca         1 G53      -0.122000
     35 C36         -4.7860    -3.7180    -2.5500 ca         1 G53      -0.124000
     36 C37         -3.7050    -2.8740    -2.3420 ca         1 G53      -0.116500
     37 C38         -3.8470    -1.4930    -2.4460 ca         1 G53      -0.090300
     38 C39          7.2380    -0.6400     0.5730 cc         1 G53       0.524900
     39 O40          7.5290    -1.9260     0.3050 os         1 G53      -0.334800
     40 C41          8.8640    -1.9830     0.1910 cc         1 G53       0.227300
     41 C42          9.3370    -0.7300     0.3930 cd         1 G53       0.179500
     42 N43          8.2810     0.1130     0.6360 nd         1 G53      -0.620000
     43 C44         10.7480    -0.3270     0.3600 c          1 G53       0.584600
     44 O45         11.6440    -1.1040     0.1370 o          1 G53      -0.539000
     45 O46         10.9040     0.9600     0.5970 os         1 G53      -0.382900
     46 C47         12.2390     1.4720     0.5890 c3         1 G53       0.126700
     47 H1           6.3360     1.8060     1.0980 ha         1 G53       0.156000
     48 H2           4.0070     2.5080     1.4080 ha         1 G53       0.157500
     49 H3           2.7150    -1.5410     0.7480 ha         1 G53       0.157500
     50 H4           5.0280    -2.2380     0.4560 ha         1 G53       0.156000
     51 H5           0.6940     2.9290    -1.2700 h1         1 G53       0.056700
     52 H6           2.3120     2.6480    -0.6780 h1         1 G53       0.056700
     53 H7           1.0780     1.3490    -3.1270 hc         1 G53       0.043700
     54 H8           3.3860     3.3080    -2.7810 hc         1 G53       0.037533
     55 H9           2.7790     2.6660    -4.3070 hc         1 G53       0.037533
     56 H10          1.7680     3.7370    -3.3410 hc         1 G53       0.037533
     57 H11          2.5830    -0.2970    -1.9850 hc         1 G53       0.037533
     58 H12          3.3030     0.3070    -3.4710 hc         1 G53       0.037533
     59 H13          3.8530     0.9200    -1.9130 hc         1 G53       0.037533
     60 H14         -0.0700     0.1770    -1.8250 h1         1 G53       0.064200
     61 H15          0.0120    -0.7810    -0.3790 h1         1 G53       0.064200
     62 H16         -1.4930     0.8580     0.7910 h1         1 G53       0.105700
     63 H17         -1.7330     2.0400    -1.7550 ho         1 G53       0.397000
     64 H18         -2.3850    -1.1750    -0.0930 h1         1 G53       0.098700
     65 H19         -4.1520     1.1580    -0.5010 hn         1 G53       0.326500
     66 H20         -7.1510    -1.5810     0.2240 h1         1 G53       0.075700
     67 H21         -6.7050    -1.8520     2.6000 h1         1 G53       0.070200
     68 H22         -6.9070    -0.1180     2.8980 h1         1 G53       0.070200
     69 H23        -10.1490    -1.0790     1.1260 h2         1 G53       0.085700
     70 H24        -10.4460     2.0640     0.7740 h1         1 G53       0.049200
     71 H25         -9.7120     2.6740     2.2650 h1         1 G53       0.049200
     72 H26         -8.1460     2.2840     0.0650 hc         1 G53       0.065200
     73 H27         -7.5440     1.8320     1.6570 hc         1 G53       0.065200
     74 H28         -8.7510     0.0290    -0.4830 hc         1 G53       0.075700
     75 H29         -2.7880     0.3380    -2.7200 hc         1 G53       0.047700
     76 H30         -1.7590    -1.0580    -2.4550 hc         1 G53       0.047700
     77 H32         -7.1510    -1.3930    -3.2230 ha         1 G53       0.131500
     78 H33         -6.8790    -3.8460    -3.0180 ha         1 G53       0.132000
     79 H34         -4.6570    -4.7900    -2.4690 ha         1 G53       0.131500
     80 H35         -2.7380    -3.2950    -2.0910 ha         1 G53       0.127000
     81 H36          9.3150    -2.9370    -0.0250 h4         1 G53       0.085100
     82 H37         12.8510     0.9960     1.3540 h1         1 G53       0.051367
     83 H38         12.7070     1.3360    -0.3860 h1         1 G53       0.051367
     84 H39         12.1510     2.5320     0.8030 h1         1 G53       0.051367
     85 H31         -5.2240     0.0970    -2.8710 ha         1 G53       0.127000
@<TRIPOS>BOND
     1     1     2 ar  
     2     1     6 ar  
     3     1    38 1   
     4     2     3 ar  
     5     2    47 1   
     6     3     4 ar  
     7     3    48 1   
     8     4     5 ar  
     9     4     7 1   
    10     5     6 ar  
    11     5    49 1   
    12     6    50 1   
    13     7     8 2   
    14     7     9 2   
    15     7    10 1   
    16    10    11 1   
    17    10    15 1   
    18    11    12 1   
    19    11    51 1   
    20    11    52 1   
    21    12    13 1   
    22    12    14 1   
    23    12    53 1   
    24    13    54 1   
    25    13    55 1   
    26    13    56 1   
    27    14    57 1   
    28    14    58 1   
    29    14    59 1   
    30    15    16 1   
    31    15    60 1   
    32    15    61 1   
    33    16    17 1   
    34    16    18 1   
    35    16    62 1   
    36    17    63 1   
    37    18    19 1   
    38    18    31 1   
    39    18    64 1   
    40    19    20 1   
    41    19    65 1   
    42    20    21 2   
    43    20    22 1   
    44    22    23 1   
    45    23    24 1   
    46    23    30 1   
    47    23    66 1   
    48    24    25 1   
    49    24    67 1   
    50    24    68 1   
    51    25    26 1   
    52    26    27 1   
    53    26    30 1   
    54    26    69 1   
    55    27    28 1   
    56    28    29 1   
    57    28    70 1   
    58    28    71 1   
    59    29    30 1   
    60    29    72 1   
    61    29    73 1   
    62    30    74 1   
    63    31    37 1   
    64    31    75 1   
    65    31    76 1   
    66    32    33 ar  
    67    32    37 ar  
    68    32    85 1   
    69    33    34 ar  
    70    33    77 1   
    71    34    35 ar  
    72    34    78 1   
    73    35    36 ar  
    74    35    79 1   
    75    36    37 ar  
    76    36    80 1   
    77    38    39 1   
    78    38    42 2   
    79    39    40 1   
    80    40    41 2   
    81    40    81 1   
    82    41    42 1   
    83    41    43 1   
    84    43    44 2   
    85    43    45 1   
    86    45    46 1   
    87    46    82 1   
    88    46    83 1   
    89    46    84 1   
@<TRIPOS>SUBSTRUCTURE
     1 G53         1 TEMP              0 ****  ****    0 ROOT
