@<TRIPOS>MOLECULE
G54
   37    40     1     0     0
SMALL
No Charge or Current Charge


@<TRIPOS>ATOM
      1 N3           5.1030    -0.4010     0.5390 na         1 G54      -0.321400
      2 C4          -2.1470    -1.7500    -0.4010 ca         1 G54      -0.064300
      3 N2           4.0780     1.6780    -0.3050 nb         1 G54      -0.190000
      4 C7          -3.5440    -2.3020    -0.3310 c5         1 G54      -0.036100
      5 C6          -0.8430     0.2420     0.0370 ca         1 G54      -0.036000
      6 C9          -3.4430     0.1160     0.3830 c5         1 G54       0.301500
      7 C13          4.0580     0.3920     0.0910 ca         1 G54       0.124500
      8 C8          -4.3680    -0.9620    -0.3220 c5         1 G54      -0.078400
      9 N5          -2.7830     3.5610     0.4930 n1         1 G54      -0.513000
     10 C16          3.2040    -1.6400     0.6170 cc         1 G54      -0.215200
     11 C1           0.3500    -0.4340    -0.3390 cp         1 G54      -0.157500
     12 C2           0.2460    -1.7870    -0.7640 ca         1 G54      -0.078000
     13 C3          -0.9950    -2.4490    -0.7870 ca         1 G54      -0.110000
     14 C5          -2.0830    -0.4250    -0.0120 ca         1 G54      -0.145300
     15 C11          1.6710     0.2700    -0.3060 cp         1 G54       0.228500
     16 N1           1.6930     1.5680    -0.6840 nb         1 G54      -0.211000
     17 C12          2.8870     2.2040    -0.6720 ca         1 G54       0.141900
     18 C14          2.8870    -0.3350     0.1070 ca         1 G54      -0.183800
     19 C15          4.5630    -1.6650     0.8730 cd         1 G54      -0.158100
     20 N4          -3.7900     1.4060    -0.2590 n7         1 G54      -0.754000
     21 C17         -3.2500     2.5500     0.1720 c1         1 G54       0.436800
     22 H1           6.0740    -0.1140     0.6210 hn         1 G54       0.365000
     23 H2          -3.8000    -2.9410    -1.1840 hc         1 G54       0.059200
     24 H3          -3.7010    -2.8830     0.5840 hc         1 G54       0.059200
     25 H4          -0.7930     1.2720     0.3790 ha         1 G54       0.143000
     26 H5          -4.5940    -0.6780    -1.3570 hc         1 G54       0.057200
     27 H6          -5.3350    -1.0750     0.1800 hc         1 G54       0.057200
     28 H7           2.5180    -2.4650     0.8050 ha         1 G54       0.212000
     29 H8           1.1330    -2.3240    -1.0900 ha         1 G54       0.120000
     30 H9          -1.0590    -3.4880    -1.1020 ha         1 G54       0.118000
     31 H10         -4.6330     0.4870     2.1930 hc         1 G54       0.051367
     32 H11         -3.4930    -0.8590     2.3500 hc         1 G54       0.051367
     33 H12         -2.9000     0.8030     2.4030 hc         1 G54       0.051367
     34 H13          2.8890     3.2460    -0.9870 h5         1 G54       0.051100
     35 H14          5.1760    -2.4730     1.2720 h4         1 G54       0.219000
     36 H15         -3.6580     1.3040    -1.2700 hn         1 G54       0.496000
     37 C10         -3.6280     0.1410     1.9210 c3         1 G54      -0.091100
@<TRIPOS>BOND
     1     1     7 1   
     2     1    19 1   
     3     1    22 1   
     4     2     4 1   
     5     2    13 ar  
     6     2    14 ar  
     7     3     7 ar  
     8     3    17 ar  
     9     4     8 1   
    10     4    23 1   
    11     4    24 1   
    12     5    11 ar  
    13     5    14 ar  
    14     5    25 1   
    15     6     8 1   
    16     6    14 1   
    17     6    20 1   
    18     6    37 1   
    19     7    18 ar  
    20     8    26 1   
    21     8    27 1   
    22     9    21 3   
    23    10    18 1   
    24    10    19 2   
    25    10    28 1   
    26    11    12 ar  
    27    11    15 1   
    28    12    13 ar  
    29    12    29 1   
    30    13    30 1   
    31    15    16 ar  
    32    15    18 ar  
    33    16    17 ar  
    34    17    34 1   
    35    19    35 1   
    36    20    21 1   
    37    20    36 1   
    38    31    37 1   
    39    32    37 1   
    40    33    37 1   
@<TRIPOS>SUBSTRUCTURE
     1 G54         1 TEMP              0 ****  ****    0 ROOT
