@<TRIPOS>MOLECULE
G54
   37    40     1     0     0
SMALL
abcg2


@<TRIPOS>ATOM
      1 N3           5.0630    -0.3660     0.4280 na         1 G54      -0.321400
      2 C4          -2.1220    -1.7870    -0.3440 ca         1 G54      -0.064300
      3 N2           4.0070     1.6700    -0.2400 nb         1 G54      -0.190000
      4 C7          -3.5490    -2.2520    -0.2970 c5         1 G54      -0.036100
      5 C6          -0.8200     0.2160     0.0050 ca         1 G54      -0.036000
      6 C9          -3.4120     0.1220     0.2750 c5         1 G54       0.301500
      7 C13          3.9970     0.3830     0.0710 ca         1 G54       0.124500
      8 C8          -4.3390    -0.9380    -0.3560 c5         1 G54      -0.078400
      9 N5          -3.1240     3.5710     0.7540 n1         1 G54      -0.513000
     10 C16          3.2930    -1.7360     0.5360 cc         1 G54      -0.215200
     11 C1           0.3470    -0.5010    -0.2710 cp         1 G54      -0.157500
     12 C2           0.2550    -1.8560    -0.6010 ca         1 G54      -0.078000
     13 C3          -0.9730    -2.5030    -0.6390 ca         1 G54      -0.110000
     14 C5          -2.0370    -0.4350    -0.0320 ca         1 G54      -0.145300
     15 C11          1.6490     0.1870    -0.2320 cp         1 G54       0.228500
     16 N1           1.6560     1.4870    -0.5240 nb         1 G54      -0.211000
     17 C12          2.8080     2.1510    -0.5130 ca         1 G54       0.141900
     18 C14          2.8500    -0.4450     0.1100 ca         1 G54      -0.183800
     19 C15          4.6410    -1.6390     0.7130 cd         1 G54      -0.158100
     20 N4          -3.6660     1.4240    -0.3530 n7         1 G54      -0.754000
     21 C17         -3.3540     2.5600     0.2340 c1         1 G54       0.436800
     22 H1           6.0130    -0.0360     0.4950 hn         1 G54       0.365000
     23 H2          -3.8030    -2.9330    -1.1100 hc         1 G54       0.059200
     24 H3          -3.7410    -2.7890     0.6360 hc         1 G54       0.059200
     25 H4          -0.7520     1.2700     0.2480 ha         1 G54       0.143000
     26 H5          -4.5240    -0.6760    -1.4010 hc         1 G54       0.057200
     27 H6          -5.3050    -0.9870     0.1470 hc         1 G54       0.057200
     28 H7           2.7060    -2.6230     0.7040 ha         1 G54       0.212000
     29 H8           1.1450    -2.4090    -0.8670 ha         1 G54       0.120000
     30 H9          -1.0230    -3.5500    -0.9090 ha         1 G54       0.118000
     31 H10         -4.6290     0.5810     2.0110 hc         1 G54       0.051367
     32 H11         -3.4960    -0.7540     2.2380 hc         1 G54       0.051367
     33 H12         -2.9000     0.8970     2.2480 hc         1 G54       0.051367
     34 H13          2.7540     3.2050    -0.7620 h5         1 G54       0.051100
     35 H14          5.3470    -2.3890     1.0290 h4         1 G54       0.219000
     36 H15         -3.6460     1.4430    -1.3640 hn         1 G54       0.496000
     37 C10         -3.6230     0.2270     1.7810 c3         1 G54      -0.091100
@<TRIPOS>BOND
     1     1     7 1   
     2     1    19 1   
     3     1    22 1   
     4     2     4 1   
     5     2    13 ar  
     6     2    14 ar  
     7     3     7 ar  
     8     3    17 ar  
     9     4     8 1   
    10     4    23 1   
    11     4    24 1   
    12     5    11 ar  
    13     5    14 ar  
    14     5    25 1   
    15     6     8 1   
    16     6    14 1   
    17     6    20 1   
    18     6    37 1   
    19     7    18 ar  
    20     8    26 1   
    21     8    27 1   
    22     9    21 3   
    23    10    18 1   
    24    10    19 2   
    25    10    28 1   
    26    11    12 ar  
    27    11    15 1   
    28    12    13 ar  
    29    12    29 1   
    30    13    30 1   
    31    15    16 ar  
    32    15    18 ar  
    33    16    17 ar  
    34    17    34 1   
    35    19    35 1   
    36    20    21 1   
    37    20    36 1   
    38    31    37 1   
    39    32    37 1   
    40    33    37 1   
@<TRIPOS>SUBSTRUCTURE
     1 G54         1 TEMP              0 ****  ****    0 ROOT
