@<TRIPOS>MOLECULE
G55
   76    78     1     0     0
SMALL
abcg2


@<TRIPOS>ATOM
      1 C2           3.0650    -3.7850    -0.1710 ca         1 G55       0.197100
      2 O39          2.6760    -5.0290     0.1280 os         1 G55      -0.334100
      3 C40          3.4220    -5.7690     1.0790 c3         1 G55       0.145900
      4 C3           2.2990    -3.1110    -1.1290 ca         1 G55      -0.196000
      5 C4           2.6230    -1.8240    -1.5000 ca         1 G55       0.024500
      6 C5           3.7160    -1.1880    -0.9170 ca         1 G55      -0.341500
      7 C6           4.4910    -1.8560     0.0200 ca         1 G55       0.024500
      8 C7           4.1670    -3.1490     0.4000 ca         1 G55      -0.196000
      9 S8           4.1100     0.4780    -1.3580 sy         1 G55       1.188600
     10 O9           5.5580     0.6030    -1.2850 o          1 G55      -0.542500
     11 O10          3.4200     0.7670    -2.6070 o          1 G55      -0.542500
     12 N11          3.4850     1.4740    -0.2120 n3         1 G55      -0.772500
     13 C12          4.2340     1.6890     1.0280 c3         1 G55       0.235800
     14 C13          5.2370     2.8400     0.9790 c3         1 G55      -0.081700
     15 C14          4.5920     4.1470     0.5360 c3         1 G55      -0.085100
     16 C15          5.8760     2.9840     2.3570 c3         1 G55      -0.085100
     17 C16          2.0910     1.8880    -0.2900 c3         1 G55       0.188800
     18 C17          1.0820     0.9070     0.3090 c3         1 G55       0.129300
     19 O18          1.2410     0.7330     1.6990 oh         1 G55      -0.651000
     20 C19         -0.3560     1.2890    -0.0660 c3         1 G55       0.091700
     21 N20         -1.2550     0.2900     0.4640 ns         1 G55      -0.484900
     22 C21         -2.3630    -0.1050    -0.1970 c          1 G55       0.642100
     23 O22         -2.5840     0.0760    -1.3740 o          1 G55      -0.524000
     24 O23         -3.1850    -0.7660     0.6310 os         1 G55      -0.472100
     25 C24         -4.4790    -1.1400     0.1500 c3         1 G55       0.162300
     26 C25         -4.3690    -2.5550    -0.4210 c3         1 G55       0.137600
     27 O26         -5.5600    -3.0220    -1.0060 os         1 G55      -0.457000
     28 C27         -6.6630    -3.1170    -0.1540 c3         1 G55       0.375600
     29 O28         -7.3320    -1.9050    -0.0240 os         1 G55      -0.475000
     30 C29         -6.8930    -0.9970     0.9740 c3         1 G55       0.164600
     31 C30         -5.4180    -1.0630     1.3450 c3         1 G55      -0.125400
     32 C32         -0.7600     2.6990     0.4090 c3         1 G55      -0.059100
     33 C33         -3.2020     2.7130     1.0200 ca         1 G55      -0.098500
     34 C34         -4.5390     2.9120     0.7030 ca         1 G55      -0.106000
     35 C35         -4.8910     3.4060    -0.5460 ca         1 G55      -0.103000
     36 C36         -3.8980     3.7080    -1.4690 ca         1 G55      -0.106000
     37 C37         -2.5640     3.5020    -1.1490 ca         1 G55      -0.098500
     38 C38         -2.1990     2.9970     0.0970 ca         1 G55      -0.091300
     39 H40          3.4200    -5.2880     2.0590 h1         1 G55       0.046033
     40 H40A         2.9380    -6.7380     1.1620 h1         1 G55       0.046033
     41 H40B         4.4550    -5.9160     0.7560 h1         1 G55       0.046033
     42 H3           1.4520    -3.6110    -1.5820 ha         1 G55       0.128000
     43 H4           2.0230    -1.3250    -2.2500 ha         1 G55       0.133500
     44 H6           5.3620    -1.3890     0.4590 ha         1 G55       0.133500
     45 H7           4.7900    -3.6430     1.1330 ha         1 G55       0.128000
     46 H12          3.5020     1.8830     1.8120 h1         1 G55       0.045700
     47 H12A         4.7380     0.7700     1.3370 h1         1 G55       0.045700
     48 H13          6.0200     2.5850     0.2610 hc         1 G55       0.080700
     49 H14          4.1680     4.0720    -0.4660 hc         1 G55       0.033533
     50 H14A         3.7930     4.4490     1.2190 hc         1 G55       0.033533
     51 H14B         5.3280     4.9520     0.5180 hc         1 G55       0.033533
     52 H15          6.3670     2.0620     2.6720 hc         1 G55       0.033533
     53 H15A         6.6280     3.7750     2.3590 hc         1 G55       0.033533
     54 H15B         5.1270     3.2370     3.1110 hc         1 G55       0.033533
     55 H16          2.0270     2.8550     0.2150 h1         1 G55       0.072700
     56 H16A         1.8310     2.0850    -1.3310 h1         1 G55       0.072700
     57 H17          1.2550    -0.0850    -0.1170 h1         1 G55       0.092700
     58 HO18         1.1580     1.5850     2.1410 ho         1 G55       0.438000
     59 H19         -0.4290     1.2570    -1.1540 h1         1 G55       0.097700
     60 HN20        -1.2280     0.1400     1.4610 hn         1 G55       0.326500
     61 H24         -4.8010    -0.4430    -0.6300 h1         1 G55       0.091700
     62 H25         -3.6150    -2.5780    -1.2100 h1         1 G55       0.058700
     63 H25A        -4.0360    -3.2290     0.3810 h1         1 G55       0.058700
     64 H27         -7.3610    -3.8040    -0.6340 h2         1 G55       0.053700
     65 H27A        -6.3710    -3.5370     0.8190 h2         1 G55       0.053700
     66 H29         -7.1200    -0.0010     0.5870 h1         1 G55       0.046700
     67 H29A        -7.4860    -1.1290     1.8860 h1         1 G55       0.046700
     68 H30         -5.2200    -1.8940     2.0290 hc         1 G55       0.059200
     69 H30A        -5.2080    -0.1500     1.9090 hc         1 G55       0.059200
     70 H32         -0.5990     2.7900     1.4880 hc         1 G55       0.049700
     71 H32A        -0.1170     3.4390    -0.0720 hc         1 G55       0.049700
     72 H34         -5.3060     2.6840     1.4320 ha         1 G55       0.113000
     73 H35         -5.9330     3.5620    -0.7970 ha         1 G55       0.114000
     74 H36         -4.1650     4.1020    -2.4410 ha         1 G55       0.113000
     75 H37         -1.7960     3.7310    -1.8790 ha         1 G55       0.109000
     76 H33         -2.9350     2.3320     1.9990 ha         1 G55       0.109000
@<TRIPOS>BOND
     1     1     2 1   
     2     1     4 ar  
     3     1     8 ar  
     4     2     3 1   
     5     3    39 1   
     6     3    40 1   
     7     3    41 1   
     8     4     5 ar  
     9     4    42 1   
    10     5     6 ar  
    11     5    43 1   
    12     6     7 ar  
    13     6     9 1   
    14     7     8 ar  
    15     7    44 1   
    16     8    45 1   
    17     9    10 2   
    18     9    11 2   
    19     9    12 1   
    20    12    13 1   
    21    12    17 1   
    22    13    14 1   
    23    13    46 1   
    24    13    47 1   
    25    14    15 1   
    26    14    16 1   
    27    14    48 1   
    28    15    49 1   
    29    15    50 1   
    30    15    51 1   
    31    16    52 1   
    32    16    53 1   
    33    16    54 1   
    34    17    18 1   
    35    17    55 1   
    36    17    56 1   
    37    18    19 1   
    38    18    20 1   
    39    18    57 1   
    40    19    58 1   
    41    20    21 1   
    42    20    32 1   
    43    20    59 1   
    44    21    22 1   
    45    21    60 1   
    46    22    23 2   
    47    22    24 1   
    48    24    25 1   
    49    25    26 1   
    50    25    31 1   
    51    25    61 1   
    52    26    27 1   
    53    26    62 1   
    54    26    63 1   
    55    27    28 1   
    56    28    29 1   
    57    28    64 1   
    58    28    65 1   
    59    29    30 1   
    60    30    31 1   
    61    30    66 1   
    62    30    67 1   
    63    31    68 1   
    64    31    69 1   
    65    32    38 1   
    66    32    70 1   
    67    32    71 1   
    68    33    34 ar  
    69    33    38 ar  
    70    33    76 1   
    71    34    35 ar  
    72    34    72 1   
    73    35    36 ar  
    74    35    73 1   
    75    36    37 ar  
    76    36    74 1   
    77    37    38 ar  
    78    37    75 1   
@<TRIPOS>SUBSTRUCTURE
     1 G55         1 TEMP              0 ****  ****    0 ROOT
