@<TRIPOS>MOLECULE
G55
   76    78     1     0     0
SMALL
No Charge or Current Charge


@<TRIPOS>ATOM
      1 C2           0.8250    -1.0490    -3.1410 ca         1 G55       0.197100
      2 O39         -0.1720    -1.3080    -4.0590 os         1 G55      -0.334100
      3 C40         -1.3520    -2.0530    -3.7130 c3         1 G55       0.145900
      4 C3           1.8580    -0.1810    -3.5240 ca         1 G55      -0.196000
      5 C4           2.8800     0.1530    -2.6210 ca         1 G55       0.024500
      6 C5           2.8620    -0.3770    -1.3160 ca         1 G55      -0.341500
      7 C6           1.8490    -1.2810    -0.9390 ca         1 G55       0.024500
      8 C7           0.8330    -1.6130    -1.8490 ca         1 G55      -0.196000
      9 S8           4.1260     0.1230    -0.1330 sy         1 G55       1.188600
     10 O9           3.9830    -0.6980     1.0730 o          1 G55      -0.542500
     11 O10          5.3930     0.2330    -0.8640 o          1 G55      -0.542500
     12 N11          3.6770     1.7260     0.2890 n3         1 G55      -0.772500
     13 C12          4.2360     2.2170     1.5730 c3         1 G55       0.235800
     14 C13          5.7820     2.3630     1.6360 c3         1 G55      -0.081700
     15 C14          6.3230     3.3390     0.5630 c3         1 G55      -0.085100
     16 C15          6.2370     2.7940     3.0490 c3         1 G55      -0.085100
     17 C16          2.2490     2.1070     0.0860 c3         1 G55       0.188800
     18 C17          1.2070     1.4730     1.0690 c3         1 G55       0.129300
     19 O18          1.0890     2.2560     2.2800 oh         1 G55      -0.651000
     20 C19         -0.1950     1.2590     0.4190 c3         1 G55       0.091700
     21 N20         -1.0900     0.5610     1.3510 ns         1 G55      -0.484900
     22 C21         -1.8950    -0.4960     1.0330 c          1 G55       0.642100
     23 O22         -1.9600    -1.0330    -0.0600 o          1 G55      -0.524000
     24 O23         -2.6010    -0.8510     2.1440 os         1 G55      -0.472100
     25 C24         -3.4980    -1.9810     2.0650 c3         1 G55       0.162300
     26 C25         -2.6530    -3.2900     2.1010 c3         1 G55       0.137600
     27 O26         -3.4570    -4.4480     1.7850 os         1 G55      -0.457000
     28 C27         -4.5550    -4.7490     2.6650 c3         1 G55       0.375600
     29 O28         -5.6120    -3.8320     2.3390 os         1 G55      -0.475000
     30 C29         -5.7590    -2.6730     3.1830 c3         1 G55       0.164600
     31 C30         -4.4530    -1.8510     3.2720 c3         1 G55      -0.125400
     32 C32         -0.8740     2.5440    -0.1280 c3         1 G55      -0.059100
     33 C33         -3.4040     2.4450    -0.4240 ca         1 G55      -0.098500
     34 C34         -4.5440     2.1300    -1.1840 ca         1 G55      -0.106000
     35 C35         -4.4030     1.5960    -2.4770 ca         1 G55      -0.103000
     36 C36         -3.1210     1.3790    -3.0090 ca         1 G55      -0.106000
     37 C37         -1.9810     1.6940    -2.2500 ca         1 G55      -0.098500
     38 C38         -2.1160     2.2290    -0.9530 ca         1 G55      -0.091300
     39 H40         -1.8910    -1.5690    -2.8880 h1         1 G55       0.046033
     40 H40A        -2.0310    -2.1120    -4.5730 h1         1 G55       0.046033
     41 H40B        -1.0950    -3.0770    -3.4140 h1         1 G55       0.046033
     42 H3           1.8590     0.2470    -4.5220 ha         1 G55       0.128000
     43 H4           3.6640     0.8460    -2.9260 ha         1 G55       0.133500
     44 H6           1.8290    -1.7150     0.0600 ha         1 G55       0.133500
     45 H7           0.0540    -2.2980    -1.5290 ha         1 G55       0.128000
     46 H12          3.8180     3.2100     1.7900 h1         1 G55       0.045700
     47 H12A         3.9100     1.5630     2.3940 h1         1 G55       0.045700
     48 H13          6.2320     1.3810     1.4520 hc         1 G55       0.080700
     49 H14          6.0590     3.0010    -0.4460 hc         1 G55       0.033533
     50 H14A         5.9070     4.3440     0.7050 hc         1 G55       0.033533
     51 H14B         7.4160     3.4080     0.6180 hc         1 G55       0.033533
     52 H15          5.8970     2.0730     3.8030 hc         1 G55       0.033533
     53 H15A         7.3310     2.8490     3.1050 hc         1 G55       0.033533
     54 H15B         5.8300     3.7790     3.3080 hc         1 G55       0.033533
     55 H16          2.1590     3.1980     0.1670 h1         1 G55       0.072700
     56 H16A         1.9390     1.8920    -0.9440 h1         1 G55       0.072700
     57 H17          1.5710     0.4710     1.3290 h1         1 G55       0.092700
     58 HO18         0.7090     3.1280     2.0380 ho         1 G55       0.438000
     59 H19         -0.0370     0.5990    -0.4440 h1         1 G55       0.097700
     60 HN20        -1.1350     0.8780     2.3110 hn         1 G55       0.326500
     61 H24         -4.0840    -1.9400     1.1360 h1         1 G55       0.091700
     62 H25         -1.8360    -3.2130     1.3730 h1         1 G55       0.058700
     63 H25A        -2.1910    -3.3990     3.0910 h1         1 G55       0.058700
     64 H27         -4.8940    -5.7750     2.4840 h2         1 G55       0.053700
     65 H27A        -4.2610    -4.6810     3.7200 h2         1 G55       0.053700
     66 H29         -6.5460    -2.0290     2.7680 h1         1 G55       0.046700
     67 H29A        -6.0780    -2.9620     4.1940 h1         1 G55       0.046700
     68 H30         -3.9170    -2.1320     4.1870 hc         1 G55       0.059200
     69 H30A        -4.7320    -0.7970     3.3990 hc         1 G55       0.059200
     70 H32         -1.1270     3.2090     0.7070 hc         1 G55       0.049700
     71 H32A        -0.1680     3.1000    -0.7560 hc         1 G55       0.049700
     72 H34         -5.5350     2.2960    -0.7700 ha         1 G55       0.113000
     73 H35         -5.2860     1.3510    -3.0640 ha         1 G55       0.114000
     74 H36         -3.0100     0.9640    -4.0090 ha         1 G55       0.113000
     75 H37         -0.9930     1.5160    -2.6690 ha         1 G55       0.109000
     76 H33         -3.5220     2.8490     0.5780 ha         1 G55       0.109000
@<TRIPOS>BOND
     1     1     2 1   
     2     1     4 ar  
     3     1     8 ar  
     4     2     3 1   
     5     3    39 1   
     6     3    40 1   
     7     3    41 1   
     8     4     5 ar  
     9     4    42 1   
    10     5     6 ar  
    11     5    43 1   
    12     6     7 ar  
    13     6     9 1   
    14     7     8 ar  
    15     7    44 1   
    16     8    45 1   
    17     9    10 2   
    18     9    11 2   
    19     9    12 1   
    20    12    13 1   
    21    12    17 1   
    22    13    14 1   
    23    13    46 1   
    24    13    47 1   
    25    14    15 1   
    26    14    16 1   
    27    14    48 1   
    28    15    49 1   
    29    15    50 1   
    30    15    51 1   
    31    16    52 1   
    32    16    53 1   
    33    16    54 1   
    34    17    18 1   
    35    17    55 1   
    36    17    56 1   
    37    18    19 1   
    38    18    20 1   
    39    18    57 1   
    40    19    58 1   
    41    20    21 1   
    42    20    32 1   
    43    20    59 1   
    44    21    22 1   
    45    21    60 1   
    46    22    23 2   
    47    22    24 1   
    48    24    25 1   
    49    25    26 1   
    50    25    31 1   
    51    25    61 1   
    52    26    27 1   
    53    26    62 1   
    54    26    63 1   
    55    27    28 1   
    56    28    29 1   
    57    28    64 1   
    58    28    65 1   
    59    29    30 1   
    60    30    31 1   
    61    30    66 1   
    62    30    67 1   
    63    31    68 1   
    64    31    69 1   
    65    32    38 1   
    66    32    70 1   
    67    32    71 1   
    68    33    34 ar  
    69    33    38 ar  
    70    33    76 1   
    71    34    35 ar  
    72    34    72 1   
    73    35    36 ar  
    74    35    73 1   
    75    36    37 ar  
    76    36    74 1   
    77    37    38 ar  
    78    37    75 1   
@<TRIPOS>SUBSTRUCTURE
     1 G55         1 TEMP              0 ****  ****    0 ROOT
