@<TRIPOS>MOLECULE
G56
   42    43     1     0     0
SMALL
No Charge or Current Charge


@<TRIPOS>ATOM
      1 O5          31.5660    29.1440     6.6940 o          1 G56      -0.714500
      2 C11         31.9900    28.7790     5.6050 c          1 G56       0.716000
      3 O4          33.1480    28.4320     5.4190 o          1 G56      -0.714500
      4 C10         30.9680    28.5850     4.4440 c3         1 G56      -0.042300
      5 C12         30.4740    29.9400     3.8800 c3         1 G56      -0.036100
      6 C13         31.5910    30.7460     3.2300 ca         1 G56      -0.026300
      7 C18         32.0810    30.3800     1.9610 ca         1 G56      -0.095000
      8 C17         33.1130    31.1200     1.3570 ca         1 G56      -0.118500
      9 C16         33.6600    32.2320     2.0190 ca         1 G56      -0.131000
     10 C15         33.1760    32.6020     3.2850 ca         1 G56      -0.118500
     11 C14         32.1450    31.8620     3.8890 ca         1 G56      -0.095000
     12 N1          29.8380    27.7400     4.8960 ns         1 G56      -0.446900
     13 C9          29.0050    27.0040     4.0790 c          1 G56       0.558100
     14 O3          29.1410    26.9780     2.8610 o          1 G56      -0.653100
     15 C7          27.8870    26.2240     4.8090 c3         1 G56       0.061600
     16 O1          28.2900    25.7860     6.1320 os         1 G56      -0.336100
     17 C5          29.2600    24.8250     6.3420 ca         1 G56       0.167100
     18 C6          29.8520    24.0920     5.2920 ca         1 G56      -0.154000
     19 C1          30.8370    23.1280     5.5760 ca         1 G56      -0.062500
     20 C4          29.6580    24.5790     7.6650 ca         1 G56      -0.154000
     21 C3          30.6420    23.6150     7.9510 ca         1 G56      -0.062500
     22 C2          31.2400    22.8820     6.9000 ca         1 G56       0.035100
     23 O2          32.2140    21.9170     7.0990 os         1 G56      -0.391100
     24 C8          32.7350    21.5460     8.3930 c3         1 G56       0.508000
     25 F1          33.6710    20.5800     8.2690 f          1 G56      -0.117000
     26 F2          31.7720    21.0570     9.2080 f          1 G56      -0.117000
     27 F3          33.3250    22.5880     9.0220 f          1 G56      -0.117000
     28 H2          31.4900    28.0460     3.6430 h1         1 G56       0.064700
     29 H3          29.9980    30.5160     4.6830 hc         1 G56       0.037700
     30 H4          29.6890    29.7560     3.1360 hc         1 G56       0.037700
     31 H5          31.6620    29.5200     1.4430 ha         1 G56       0.112500
     32 H6          33.4860    30.8320     0.3770 ha         1 G56       0.093500
     33 H7          34.4580    32.8050     1.5520 ha         1 G56       0.090000
     34 H8          33.5990    33.4620     3.7990 ha         1 G56       0.093500
     35 H9          31.7770    32.1540     4.8700 ha         1 G56       0.112500
     36 H10         29.6540    27.6790     5.8930 hn         1 G56       0.352500
     37 H11         27.0330    26.9060     4.8940 h1         1 G56       0.068200
     38 H12         27.5780    25.3760     4.1860 h1         1 G56       0.068200
     39 H13         29.5630    24.2480     4.2570 ha         1 G56       0.135500
     40 H14         31.2910    22.5650     4.7640 ha         1 G56       0.127500
     41 H15         29.2010    25.1410     8.4750 ha         1 G56       0.135500
     42 H16         30.9220    23.4570     8.9890 ha         1 G56       0.127500
@<TRIPOS>BOND
     1     1     2 1   
     2     2     3 1   
     3     2     4 1   
     4     4     5 1   
     5     4    12 1   
     6     4    28 1   
     7     5     6 1   
     8     5    29 1   
     9     5    30 1   
    10     6     7 ar  
    11     6    11 ar  
    12     7     8 ar  
    13     7    31 1   
    14     8     9 ar  
    15     8    32 1   
    16     9    10 ar  
    17     9    33 1   
    18    10    11 ar  
    19    10    34 1   
    20    11    35 1   
    21    12    13 1   
    22    12    36 1   
    23    13    14 2   
    24    13    15 1   
    25    15    16 1   
    26    15    37 1   
    27    15    38 1   
    28    16    17 1   
    29    17    18 ar  
    30    17    20 ar  
    31    18    19 ar  
    32    18    39 1   
    33    19    22 ar  
    34    19    40 1   
    35    20    21 ar  
    36    20    41 1   
    37    21    22 ar  
    38    21    42 1   
    39    22    23 1   
    40    23    24 1   
    41    24    25 1   
    42    24    26 1   
    43    24    27 1   
@<TRIPOS>SUBSTRUCTURE
     1 G56         1 TEMP              0 ****  ****    0 ROOT
