@<TRIPOS>MOLECULE
G56
   42    43     1     0     0
SMALL
abcg2


@<TRIPOS>ATOM
      1 O5          32.1910    28.6970     6.5300 o          1 G56      -0.714500
      2 C11         32.5010    28.8910     5.3360 c          1 G56       0.716000
      3 O4          33.5820    29.3050     4.8890 o          1 G56      -0.714500
      4 C10         31.3870    28.6230     4.2940 c3         1 G56      -0.042300
      5 C12         30.6590    29.9380     3.9380 c3         1 G56      -0.036100
      6 C13         31.4730    30.9030     3.1260 ca         1 G56      -0.026300
      7 C18         31.7820    30.6140     1.7970 ca         1 G56      -0.095000
      8 C17         32.5050    31.5080     1.0220 ca         1 G56      -0.118500
      9 C16         32.9320    32.7150     1.5630 ca         1 G56      -0.131000
     10 C15         32.6280    33.0160     2.8840 ca         1 G56      -0.118500
     11 C14         31.9060    32.1150     3.6560 ca         1 G56      -0.095000
     12 N1          30.4470    27.6770     4.8510 ns         1 G56      -0.446900
     13 C9          29.5700    26.9740     4.1380 c          1 G56       0.558100
     14 O3          29.4880    26.9890     2.9150 o          1 G56      -0.653100
     15 C7          28.5640    26.1530     4.9350 c3         1 G56       0.061600
     16 O1          28.9070    25.9410     6.2840 os         1 G56      -0.336100
     17 C5          29.7420    24.9310     6.6120 ca         1 G56       0.167100
     18 C6          30.3810    24.1000     5.6960 ca         1 G56      -0.154000
     19 C1          31.1770    23.0560     6.1510 ca         1 G56      -0.062500
     20 C4          29.9470    24.7380     7.9780 ca         1 G56      -0.154000
     21 C3          30.7480    23.7070     8.4280 ca         1 G56      -0.062500
     22 C2          31.3440    22.8580     7.5070 ca         1 G56       0.035100
     23 O2          32.1650    21.8250     7.9550 os         1 G56      -0.391100
     24 C8          31.5730    20.6630     8.2540 c3         1 G56       0.508000
     25 F1          32.5060    19.8270     8.6820 f          1 G56      -0.117000
     26 F2          30.9630    20.1060     7.2050 f          1 G56      -0.117000
     27 F3          30.6510    20.7840     9.2130 f          1 G56      -0.117000
     28 H2          31.8290    28.2030     3.3880 h1         1 G56       0.064700
     29 H3          30.3250    30.4150     4.8630 hc         1 G56       0.037700
     30 H4          29.7590    29.6810     3.3750 hc         1 G56       0.037700
     31 H5          31.4430    29.6800     1.3610 ha         1 G56       0.112500
     32 H6          32.7320    31.2670    -0.0090 ha         1 G56       0.093500
     33 H7          33.4920    33.4180     0.9590 ha         1 G56       0.090000
     34 H8          32.9520    33.9550     3.3150 ha         1 G56       0.093500
     35 H9          31.6720    32.3580     4.6860 ha         1 G56       0.112500
     36 H10         30.4430    27.6440     5.8620 hn         1 G56       0.352500
     37 H11         27.6290    26.7180     4.9500 h1         1 G56       0.068200
     38 H12         28.3620    25.2190     4.4040 h1         1 G56       0.068200
     39 H13         30.2750    24.2330     4.6280 ha         1 G56       0.135500
     40 H14         31.6700    22.4100     5.4360 ha         1 G56       0.127500
     41 H15         29.4680    25.3990     8.6880 ha         1 G56       0.135500
     42 H16         30.9070    23.5710     9.4890 ha         1 G56       0.127500
@<TRIPOS>BOND
     1     1     2 1   
     2     2     3 1   
     3     2     4 1   
     4     4     5 1   
     5     4    12 1   
     6     4    28 1   
     7     5     6 1   
     8     5    29 1   
     9     5    30 1   
    10     6     7 ar  
    11     6    11 ar  
    12     7     8 ar  
    13     7    31 1   
    14     8     9 ar  
    15     8    32 1   
    16     9    10 ar  
    17     9    33 1   
    18    10    11 ar  
    19    10    34 1   
    20    11    35 1   
    21    12    13 1   
    22    12    36 1   
    23    13    14 2   
    24    13    15 1   
    25    15    16 1   
    26    15    37 1   
    27    15    38 1   
    28    16    17 1   
    29    17    18 ar  
    30    17    20 ar  
    31    18    19 ar  
    32    18    39 1   
    33    19    22 ar  
    34    19    40 1   
    35    20    21 ar  
    36    20    41 1   
    37    21    22 ar  
    38    21    42 1   
    39    22    23 1   
    40    23    24 1   
    41    24    25 1   
    42    24    26 1   
    43    24    27 1   
@<TRIPOS>SUBSTRUCTURE
     1 G56         1 TEMP              0 ****  ****    0 ROOT
