@<TRIPOS>MOLECULE
G57
   58    61     1     0     0
SMALL
bcc


@<TRIPOS>ATOM
      1 O52          6.5360    -0.1590     0.1370 o          1 G57      -0.828800
      2 C50          6.7420     0.3200    -0.9910 c          1 G57       0.935600
      3 O51          7.7420     0.1450    -1.7140 o          1 G57      -0.828800
      4 C49          5.6480     1.2370    -1.5960 c3         1 G57      -0.195100
      5 C42          4.4780     1.4790    -0.6970 ca         1 G57       0.012700
      6 C41          3.3950     0.6050    -0.6890 ca         1 G57      -0.107000
      7 C43          4.4440     2.5760     0.1590 ca         1 G57      -0.120000
      8 C44          3.3600     2.7900     0.9990 ca         1 G57      -0.139000
      9 C45          2.2880     1.9110     0.9960 ca         1 G57      -0.145000
     10 C34          2.2960     0.8050     0.1450 cp         1 G57      -0.067000
     11 C20          1.1570    -0.1350     0.1330 cp         1 G57      -0.004000
     12 C19          1.3650    -1.5090     0.0210 ca         1 G57      -0.066000
     13 C18          0.2810    -2.3680     0.0310 ca         1 G57      -0.207300
     14 C35          0.4660    -3.8420    -0.1390 c3         1 G57       0.719200
     15 F48         -0.2570    -4.5460     0.7420 f          1 G57      -0.239967
     16 F47          0.0720    -4.2450    -1.3590 f          1 G57      -0.239967
     17 F46          1.7380    -4.2260     0.0030 f          1 G57      -0.239967
     18 C17         -1.0160    -1.8790     0.1620 ca         1 G57      -0.103000
     19 C21         -0.1460     0.3380     0.2440 ca         1 G57      -0.087000
     20 C16         -1.2460    -0.5150     0.2720 ca         1 G57      -0.080300
     21 C4          -2.6580     0.0810     0.3290 c6         1 G57       0.200800
     22 C14         -3.7280    -0.9330     0.8370 c3         1 G57      -0.043700
     23 C36         -3.4650    -1.4510     2.2490 c3         1 G57      -0.087600
     24 C15         -5.1390    -0.3580     0.7680 c3         1 G57      -0.087600
     25 C3          -2.6550     1.3430     1.1890 ce         1 G57      -0.239900
     26 C8          -2.0390     1.3060     2.4530 cg         1 G57       0.225500
     27 N9          -1.5260     1.3110     3.4920 n1         1 G57      -0.413800
     28 C2          -3.1960     2.5500     0.8200 c2         1 G57       0.392100
     29 N7          -3.3400     3.6190     1.6120 nv         1 G57      -0.854600
     30 C5          -3.0070     0.5410    -1.0560 cc         1 G57      -0.296600
     31 C10         -3.0030    -0.0670    -2.2990 cd         1 G57      -0.033600
     32 C13         -2.6050    -1.4280    -2.7450 c3         1 G57      -0.036800
     33 N11         -3.4640     0.8620    -3.1560 na         1 G57      -0.008600
     34 N12         -3.7690     2.0310    -2.5860 nd         1 G57      -0.520800
     35 C6          -3.4890     1.8170    -1.3280 cc         1 G57       0.537600
     36 O1          -3.6830     2.7900    -0.4070 os         1 G57      -0.337400
     37 H2           6.1130     2.1880    -1.8740 hc         1 G57       0.032700
     38 H3           5.3140     0.7850    -2.5350 hc         1 G57       0.032700
     39 H4           3.3970    -0.2390    -1.3690 ha         1 G57       0.127000
     40 H5           5.2740     3.2730     0.1680 ha         1 G57       0.127000
     41 H6           3.3510     3.6440     1.6640 ha         1 G57       0.111000
     42 H7           1.4560     2.0750     1.6700 ha         1 G57       0.115000
     43 H8           2.3760    -1.8890    -0.0540 ha         1 G57       0.171000
     44 H9          -1.8440    -2.5740     0.1670 ha         1 G57       0.133000
     45 H10         -0.3060     1.4070     0.2880 ha         1 G57       0.141000
     46 H11         -3.7060    -1.7880     0.1520 hc         1 G57       0.039700
     47 H12         -4.1310    -2.2890     2.4620 hc         1 G57       0.035200
     48 H13         -2.4430    -1.7990     2.3980 hc         1 G57       0.035200
     49 H14         -3.6680    -0.6850     2.9980 hc         1 G57       0.035200
     50 H15         -5.2560     0.4930     1.4400 hc         1 G57       0.035200
     51 H16         -5.4130    -0.0410    -0.2380 hc         1 G57       0.035200
     52 H17         -5.8580    -1.1170     1.0780 hc         1 G57       0.035200
     53 H18         -2.9570     3.6070     2.5430 hn         1 G57       0.445800
     54 H19         -3.4420     4.5300     1.1930 hn         1 G57       0.445800
     55 H20         -3.1110    -2.1980    -2.1640 hc         1 G57       0.059700
     56 H21         -2.8530    -1.5850    -3.7930 hc         1 G57       0.059700
     57 H22         -1.5320    -1.5810    -2.6270 hc         1 G57       0.059700
     58 H23         -3.5880     0.7510    -4.1500 hn         1 G57       0.325700
@<TRIPOS>BOND
     1     1     2 1   
     2     2     3 1   
     3     2     4 1   
     4     4     5 1   
     5     4    37 1   
     6     4    38 1   
     7     5     6 ar  
     8     5     7 ar  
     9     6    10 ar  
    10     6    39 1   
    11     7     8 ar  
    12     7    40 1   
    13     8     9 ar  
    14     8    41 1   
    15     9    10 ar  
    16     9    42 1   
    17    10    11 1   
    18    11    12 ar  
    19    11    19 ar  
    20    12    13 ar  
    21    12    43 1   
    22    13    14 1   
    23    13    18 ar  
    24    14    15 1   
    25    14    16 1   
    26    14    17 1   
    27    18    20 ar  
    28    18    44 1   
    29    19    20 ar  
    30    19    45 1   
    31    20    21 1   
    32    21    22 1   
    33    21    25 1   
    34    21    30 1   
    35    22    23 1   
    36    22    24 1   
    37    22    46 1   
    38    23    47 1   
    39    23    48 1   
    40    23    49 1   
    41    24    50 1   
    42    24    51 1   
    43    24    52 1   
    44    25    26 1   
    45    25    28 2   
    46    26    27 3   
    47    28    29 1   
    48    28    36 1   
    49    29    53 1   
    50    29    54 1   
    51    30    31 2   
    52    30    35 1   
    53    31    32 1   
    54    31    33 1   
    55    32    55 1   
    56    32    56 1   
    57    32    57 1   
    58    33    34 1   
    59    33    58 1   
    60    34    35 2   
    61    35    36 1   
@<TRIPOS>SUBSTRUCTURE
     1 G57         1 TEMP              0 ****  ****    0 ROOT
