@<TRIPOS>MOLECULE
G57
   58    61     1     0     0
SMALL
No Charge or Current Charge


@<TRIPOS>ATOM
      1 O52          6.6490    -0.8900    -0.9240 o          1 G57      -0.723500
      2 C50          6.7670     0.3250    -0.9740 c          1 G57       0.725000
      3 O51          7.5930     0.9520    -0.3280 o          1 G57      -0.723500
      4 C49          5.7290     1.1170    -1.7820 c3         1 G57      -0.195100
      5 C42          4.5320     1.4410    -0.8920 ca         1 G57       0.012700
      6 C41          3.4510     0.5430    -0.7990 ca         1 G57      -0.089000
      7 C43          4.4950     2.6430    -0.1610 ca         1 G57      -0.102000
      8 C44          3.3900     2.9420     0.6510 ca         1 G57      -0.121000
      9 C45          2.3150     2.0430     0.7370 ca         1 G57      -0.127000
     10 C34          2.3230     0.8230     0.0150 cp         1 G57      -0.067000
     11 C20          1.1770    -0.1360     0.1080 cp         1 G57      -0.004000
     12 C19          1.3900    -1.5340     0.0910 ca         1 G57      -0.048000
     13 C18          0.3120    -2.4400     0.1650 ca         1 G57      -0.207300
     14 C35          0.5430    -3.9550     0.1190 c3         1 G57       0.355300
     15 F48         -0.2380    -4.6120     1.0060 f          1 G57      -0.118667
     16 F47          0.2600    -4.4560    -1.1040 f          1 G57      -0.118667
     17 F46          1.8210    -4.3010     0.4010 f          1 G57      -0.118667
     18 C17         -1.0020    -1.9380     0.2580 ca         1 G57      -0.085000
     19 C21         -0.1540     0.3330     0.2070 ca         1 G57      -0.069000
     20 C16         -1.2540    -0.5460     0.3010 ca         1 G57      -0.080300
     21 C4          -2.6830     0.0630     0.3660 c6         1 G57       0.200800
     22 C14         -3.8360    -0.9520     0.7780 c3         1 G57      -0.043700
     23 C36         -3.6790    -1.6110     2.1770 c3         1 G57      -0.087600
     24 C15         -5.2680    -0.3600     0.6660 c3         1 G57      -0.087600
     25 C3          -2.7090     1.3190     1.3870 ce         1 G57      -0.239900
     26 C8          -2.1810     1.2020     2.7440 cg         1 G57       0.314700
     27 N9          -1.7420     1.1530     3.8240 n1         1 G57      -0.503000
     28 C2          -3.1990     2.5430     1.0120 c2         1 G57       0.392100
     29 N7          -3.2840     3.6760     1.7870 nv         1 G57      -0.965000
     30 C5          -3.0110     0.6200    -1.0070 cc         1 G57      -0.231300
     31 C10         -2.9520     0.0520    -2.2510 cd         1 G57      -0.084300
     32 C13         -2.5110    -1.3200    -2.6950 c3         1 G57      -0.036800
     33 N11         -3.4140     1.0570    -3.1270 na         1 G57      -0.008200
     34 N12         -3.7530     2.2440    -2.4660 nd         1 G57      -0.520800
     35 C6          -3.4760     1.9160    -1.2270 cc         1 G57       0.472300
     36 O1          -3.6540     2.8260    -0.2320 os         1 G57      -0.337400
     37 H2           6.1560     2.0730    -2.1100 hc         1 G57       0.032700
     38 H3           5.3560     0.5100    -2.6160 hc         1 G57       0.032700
     39 H4           3.4810    -0.3780    -1.3750 ha         1 G57       0.109000
     40 H5           5.3240     3.3440    -0.2200 ha         1 G57       0.109000
     41 H6           3.3680     3.8710     1.2170 ha         1 G57       0.093000
     42 H7           1.4750     2.2880     1.3820 ha         1 G57       0.097000
     43 H8           2.4080    -1.9090     0.0210 ha         1 G57       0.153000
     44 H9          -1.8210    -2.6500     0.2800 ha         1 G57       0.115000
     45 H10         -0.3310     1.4050     0.1870 ha         1 G57       0.123000
     46 H11         -3.8210    -1.7740     0.0550 hc         1 G57       0.039700
     47 H12         -4.3230    -2.4960     2.2540 hc         1 G57       0.035200
     48 H13         -2.6500    -1.9310     2.3730 hc         1 G57       0.035200
     49 H14         -3.9760    -0.9210     2.9750 hc         1 G57       0.035200
     50 H15         -5.3930     0.5020     1.3310 hc         1 G57       0.035200
     51 H16         -5.4930    -0.0420    -0.3580 hc         1 G57       0.035200
     52 H17         -6.0170    -1.1110     0.9440 hc         1 G57       0.035200
     53 H18         -2.6480     3.7280     2.5780 hn         1 G57       0.501000
     54 H19         -3.4070     4.5460     1.2770 hn         1 G57       0.501000
     55 H20         -3.0130    -2.1070    -2.1230 hc         1 G57       0.059700
     56 H21         -2.7350    -1.4900    -3.7550 hc         1 G57       0.059700
     57 H22         -1.4290    -1.4450    -2.5630 hc         1 G57       0.059700
     58 H23         -3.5070     0.9700    -4.1390 hn         1 G57       0.376000
@<TRIPOS>BOND
     1     1     2 1   
     2     2     3 1   
     3     2     4 1   
     4     4     5 1   
     5     4    37 1   
     6     4    38 1   
     7     5     6 ar  
     8     5     7 ar  
     9     6    10 ar  
    10     6    39 1   
    11     7     8 ar  
    12     7    40 1   
    13     8     9 ar  
    14     8    41 1   
    15     9    10 ar  
    16     9    42 1   
    17    10    11 1   
    18    11    12 ar  
    19    11    19 ar  
    20    12    13 ar  
    21    12    43 1   
    22    13    14 1   
    23    13    18 ar  
    24    14    15 1   
    25    14    16 1   
    26    14    17 1   
    27    18    20 ar  
    28    18    44 1   
    29    19    20 ar  
    30    19    45 1   
    31    20    21 1   
    32    21    22 1   
    33    21    25 1   
    34    21    30 1   
    35    22    23 1   
    36    22    24 1   
    37    22    46 1   
    38    23    47 1   
    39    23    48 1   
    40    23    49 1   
    41    24    50 1   
    42    24    51 1   
    43    24    52 1   
    44    25    26 1   
    45    25    28 2   
    46    26    27 3   
    47    28    29 1   
    48    28    36 1   
    49    29    53 1   
    50    29    54 1   
    51    30    31 2   
    52    30    35 1   
    53    31    32 1   
    54    31    33 1   
    55    32    55 1   
    56    32    56 1   
    57    32    57 1   
    58    33    34 1   
    59    33    58 1   
    60    34    35 2   
    61    35    36 1   
@<TRIPOS>SUBSTRUCTURE
     1 G57         1 TEMP              0 ****  ****    0 ROOT
