@<TRIPOS>MOLECULE
G58
   59    62     1     0     0
SMALL
No Charge or Current Charge


@<TRIPOS>ATOM
      1 C1           7.6710     0.4550     0.5940 c3         1 G58       0.050900
      2 F1           3.8470     2.2950    -2.3000 f          1 G58      -0.165000
      3 N1           6.3050     0.7130     1.0700 na         1 G58      -0.155500
      4 O1           2.4380     3.2080     2.4960 o          1 G58      -0.538500
      5 S1           2.8780     2.7170     1.1820 sy         1 G58       1.161200
      6 Cl1          1.8940    -2.0140    -0.1830 cl         1 G58      -0.191000
      7 C2           5.5820    -0.0830     1.9340 cc         1 G58       0.389400
      8 N2           4.3760     0.4220     2.1390 nd         1 G58      -0.607000
      9 O2           3.0950     3.6720     0.0880 o          1 G58      -0.538500
     10 S2          -7.3580    -0.7010    -1.9010 sy         1 G58       1.055500
     11 C3           4.3130     1.5900     1.3720 cd         1 G58      -0.007100
     12 N3           1.6580     1.6290     0.6650 n3         1 G58      -0.760500
     13 O3          -6.4210    -0.2920    -2.9560 o          1 G58      -0.523000
     14 C4           5.5120     1.7860     0.7270 cc         1 G58      -0.091000
     15 O4          -8.4340    -1.6650    -2.1700 o          1 G58      -0.523000
     16 C5           1.1680     0.6800     1.6960 c3         1 G58       0.266100
     17 C6          -0.2640     0.1900     1.4620 ca         1 G58      -0.084300
     18 C7          -0.6310    -1.1200     1.8280 ca         1 G58      -0.094000
     19 C8          -1.9450    -1.5750     1.6310 ca         1 G58      -0.099000
     20 C9          -2.9380    -0.7340     1.0710 cp         1 G58      -0.043000
     21 C10         -2.5600     0.5870     0.7240 ca         1 G58      -0.099000
     22 C11         -1.2460     1.0440     0.9220 ca         1 G58      -0.094000
     23 C12         -4.3380    -1.2210     0.8590 cp         1 G58      -0.044000
     24 C13         -4.9470    -2.1150     1.7750 ca         1 G58      -0.050000
     25 C14         -6.2620    -2.5700     1.5790 ca         1 G58      -0.128000
     26 C15         -6.9990    -2.1440     0.4630 ca         1 G58      -0.016000
     27 C16         -6.4160    -1.2590    -0.4660 ca         1 G58      -0.263500
     28 C17         -5.0970    -0.8020    -0.2640 ca         1 G58      -0.014000
     29 C18         -8.1470     0.7950    -1.3110 c3         1 G58      -0.336100
     30 C19          1.7240     1.1210    -0.7420 c3         1 G58       0.268100
     31 C20          2.9880     0.3520    -1.1710 ca         1 G58      -0.145300
     32 C21          3.9940     1.0060    -1.9230 ca         1 G58       0.189000
     33 C22          5.1630     0.3360    -2.3170 ca         1 G58      -0.162000
     34 C23          5.3450    -1.0140    -1.9920 ca         1 G58      -0.070000
     35 C24          4.3320    -1.6970    -1.3060 ca         1 G58      -0.125000
     36 C25          3.1570    -1.0320    -0.9140 ca         1 G58       0.164000
     37 H1           8.3890     0.9790     1.2360 h1         1 G58       0.059367
     38 H1A          7.8780    -0.6220     0.6210 h1         1 G58       0.059367
     39 H1B          7.7770     0.8150    -0.4370 h1         1 G58       0.059367
     40 H2           5.9820    -0.9940     2.3620 h5         1 G58       0.060100
     41 H4           5.8320     2.5700     0.0500 h4         1 G58       0.183000
     42 H5           1.8420    -0.1800     1.7800 h1         1 G58       0.074200
     43 H5A          1.1620     1.1500     2.6880 h1         1 G58       0.074200
     44 H7           0.1060    -1.7910     2.2640 ha         1 G58       0.119500
     45 H8          -2.1910    -2.5980     1.9050 ha         1 G58       0.114000
     46 H10         -3.2960     1.2730     0.3130 ha         1 G58       0.114000
     47 H11         -0.9930     2.0680     0.6550 ha         1 G58       0.119500
     48 H13         -4.4020    -2.4480     2.6540 ha         1 G58       0.120000
     49 H14         -6.7120    -3.2510     2.2970 ha         1 G58       0.121000
     50 H15         -8.0190    -2.5040     0.3270 ha         1 G58       0.141000
     51 H17         -4.6460    -0.1250    -0.9870 ha         1 G58       0.136000
     52 H18         -7.3640     1.4990    -1.0110 h1         1 G58       0.102367
     53 H18A        -8.7480     1.2090    -2.1270 h1         1 G58       0.102367
     54 H18B        -8.7800     0.5340    -0.4570 h1         1 G58       0.102367
     55 H19          0.8550     0.4830    -0.9490 h1         1 G58       0.086200
     56 H19A         1.5960     1.9730    -1.4230 h1         1 G58       0.086200
     57 H22          5.9260     0.8680    -2.8800 ha         1 G58       0.132000
     58 H23          6.2500    -1.5360    -2.2980 ha         1 G58       0.122000
     59 H24          4.4470    -2.7570    -1.0930 ha         1 G58       0.136000
@<TRIPOS>BOND
     1     1     3 1   
     2     1    37 1   
     3     1    38 1   
     4     1    39 1   
     5     2    32 1   
     6     3     7 1   
     7     3    14 1   
     8     4     5 2   
     9     5     9 2   
    10     5    11 1   
    11     5    12 1   
    12     6    36 1   
    13     7     8 2   
    14     7    40 1   
    15     8    11 1   
    16    10    13 2   
    17    10    15 2   
    18    10    27 1   
    19    10    29 1   
    20    11    14 2   
    21    12    16 1   
    22    12    30 1   
    23    14    41 1   
    24    16    17 1   
    25    16    42 1   
    26    16    43 1   
    27    17    18 ar  
    28    17    22 ar  
    29    18    19 ar  
    30    18    44 1   
    31    19    20 ar  
    32    19    45 1   
    33    20    21 ar  
    34    20    23 1   
    35    21    22 ar  
    36    21    46 1   
    37    22    47 1   
    38    23    24 ar  
    39    23    28 ar  
    40    24    25 ar  
    41    24    48 1   
    42    25    26 ar  
    43    25    49 1   
    44    26    27 ar  
    45    26    50 1   
    46    27    28 ar  
    47    28    51 1   
    48    29    52 1   
    49    29    53 1   
    50    29    54 1   
    51    30    31 1   
    52    30    55 1   
    53    30    56 1   
    54    31    32 ar  
    55    31    36 ar  
    56    32    33 ar  
    57    33    34 ar  
    58    33    57 1   
    59    34    35 ar  
    60    34    58 1   
    61    35    36 ar  
    62    35    59 1   
@<TRIPOS>SUBSTRUCTURE
     1 G58         1 TEMP              0 ****  ****    0 ROOT
