@<TRIPOS>MOLECULE
G58
   59    62     1     0     0
SMALL
bcc


@<TRIPOS>ATOM
      1 C1           7.6370     2.0360     0.9640 c3         1 G58       0.021600
      2 F1           4.0970     1.7130    -1.9590 f          1 G58      -0.129900
      3 N1           6.2360     1.7570     1.2030 na         1 G58      -0.176900
      4 O1           1.8000     2.5390     2.2420 o          1 G58      -0.609300
      5 S1           2.4060     2.2200     0.9590 sy         1 G58       1.302800
      6 CL1          1.9850    -2.7250    -0.7680 cl         1 G58      -0.099400
      7 C2           5.7370     0.7380     1.9410 cc         1 G58       0.389400
      8 N2           4.4320     0.7510     1.9770 nd         1 G58      -0.607000
      9 O2           2.3530     3.2070    -0.1060 o          1 G58      -0.609300
     10 S2          -7.4740    -0.0240    -1.5620 sy         1 G58       1.086300
     11 C3           4.0840     1.8250     1.2230 cd         1 G58       0.058200
     12 N3           1.6910     0.8370     0.4320 n3         1 G58      -0.760500
     13 O3          -6.6120     0.1950    -2.7210 o          1 G58      -0.593800
     14 C4           5.1830     2.4700     0.7300 cc         1 G58      -0.123600
     15 O4          -8.7430    -0.7230    -1.7560 o          1 G58      -0.593800
     16 C5           1.2050    -0.1330     1.4060 c3         1 G58       0.266100
     17 C6          -0.2560    -0.4340     1.2040 ca         1 G58      -0.084300
     18 C7          -0.7310    -1.7340     1.3320 ca         1 G58      -0.112000
     19 C8          -2.0830    -2.0130     1.1980 ca         1 G58      -0.117000
     20 C9          -2.9950    -0.9970     0.9200 cp         1 G58      -0.043000
     21 C10         -2.5140     0.3070     0.7890 ca         1 G58      -0.117000
     22 C11         -1.1650     0.5840     0.9330 ca         1 G58      -0.112000
     23 C12         -4.4340    -1.2870     0.7650 cp         1 G58      -0.044000
     24 C13         -5.0740    -2.2240     1.5780 ca         1 G58      -0.068000
     25 C14         -6.4270    -2.4920     1.4360 ca         1 G58      -0.146000
     26 C15         -7.1790    -1.8230     0.4810 ca         1 G58      -0.034000
     27 C16         -6.5410    -0.8950    -0.3260 ca         1 G58      -0.263500
     28 C17         -5.1860    -0.6260    -0.2040 ca         1 G58      -0.032000
     29 C18         -7.8050     1.5510    -0.8060 c3         1 G58      -0.225300
     30 C19          1.8390     0.4030    -0.9550 c3         1 G58       0.268100
     31 C20          3.1340    -0.3100    -1.2770 ca         1 G58      -0.145300
     32 C21          4.2380     0.4000    -1.7360 ca         1 G58       0.153900
     33 C22          5.4690    -0.1650    -1.9960 ca         1 G58      -0.180000
     34 C23          5.6150    -1.5310    -1.8230 ca         1 G58      -0.088000
     35 C24          4.5370    -2.3030    -1.4230 ca         1 G58      -0.143000
     36 C25          3.3190    -1.6900    -1.1690 ca         1 G58       0.072400
     37 H1           7.9520     2.9180     1.5170 h1         1 G58       0.059367
     38 H1A          8.2270     1.1840     1.2890 h1         1 G58       0.059367
     39 H1B          7.8090     2.1970    -0.0970 h1         1 G58       0.059367
     40 H2           6.3760     0.0180     2.4290 h5         1 G58       0.060100
     41 H4           5.2970     3.3380     0.1040 h4         1 G58       0.201000
     42 H5           1.7950    -1.0490     1.3620 h1         1 G58       0.074200
     43 H5A          1.3550     0.2610     2.4090 h1         1 G58       0.074200
     44 H7          -0.0390    -2.5420     1.5320 ha         1 G58       0.137500
     45 H8          -2.4220    -3.0380     1.2860 ha         1 G58       0.132000
     46 H10         -3.2020     1.1210     0.5960 ha         1 G58       0.132000
     47 H11         -0.8190     1.6050     0.8310 ha         1 G58       0.137500
     48 H13         -4.5110    -2.7390     2.3460 ha         1 G58       0.138000
     49 H14         -6.9020    -3.2210     2.0780 ha         1 G58       0.139000
     50 H15         -8.2360    -2.0270     0.3760 ha         1 G58       0.159000
     51 H17         -4.7050     0.0780    -0.8720 ha         1 G58       0.154000
     52 H18         -6.8650     2.0620    -0.6110 h1         1 G58       0.102367
     53 H18A        -8.4060     2.1280    -1.5070 h1         1 G58       0.102367
     54 H18B        -8.3520     1.3990     0.1220 h1         1 G58       0.102367
     55 H19          0.9940    -0.2540    -1.1610 h1         1 G58       0.086200
     56 H19A         1.7080     1.2600    -1.6120 h1         1 G58       0.086200
     57 H22          6.2880     0.4480    -2.3470 ha         1 G58       0.150000
     58 H23          6.5690    -2.0010    -2.0200 ha         1 G58       0.140000
     59 H24          4.6370    -3.3750    -1.3230 ha         1 G58       0.154000
@<TRIPOS>BOND
     1     1     3 1   
     2     1    37 1   
     3     1    38 1   
     4     1    39 1   
     5     2    32 1   
     6     3     7 1   
     7     3    14 1   
     8     4     5 2   
     9     5     9 2   
    10     5    11 1   
    11     5    12 1   
    12     6    36 1   
    13     7     8 2   
    14     7    40 1   
    15     8    11 1   
    16    10    13 2   
    17    10    15 2   
    18    10    27 1   
    19    10    29 1   
    20    11    14 2   
    21    12    16 1   
    22    12    30 1   
    23    14    41 1   
    24    16    17 1   
    25    16    42 1   
    26    16    43 1   
    27    17    18 ar  
    28    17    22 ar  
    29    18    19 ar  
    30    18    44 1   
    31    19    20 ar  
    32    19    45 1   
    33    20    21 ar  
    34    20    23 1   
    35    21    22 ar  
    36    21    46 1   
    37    22    47 1   
    38    23    24 ar  
    39    23    28 ar  
    40    24    25 ar  
    41    24    48 1   
    42    25    26 ar  
    43    25    49 1   
    44    26    27 ar  
    45    26    50 1   
    46    27    28 ar  
    47    28    51 1   
    48    29    52 1   
    49    29    53 1   
    50    29    54 1   
    51    30    31 1   
    52    30    55 1   
    53    30    56 1   
    54    31    32 ar  
    55    31    36 ar  
    56    32    33 ar  
    57    33    34 ar  
    58    33    57 1   
    59    34    35 ar  
    60    34    58 1   
    61    35    36 ar  
    62    35    59 1   
@<TRIPOS>SUBSTRUCTURE
     1 G58         1 TEMP              0 ****  ****    0 ROOT
