@<TRIPOS>MOLECULE
G59
   54    57     1     0     0
SMALL
abcg2


@<TRIPOS>ATOM
      1 O22         -0.9600    -0.7840     1.1950 o          1 G59      -0.655100
      2 C20         -1.5400     0.2950     1.0590 c          1 G59       0.668700
      3 N21         -2.8720     0.4300     1.2350 ns         1 G59      -0.503900
      4 C23         -3.7570    -0.6390     1.6230 c3         1 G59       0.150300
      5 C24         -4.6880    -1.0760     0.5190 ca         1 G59      -0.126300
      6 C25         -4.2050    -1.3800    -0.7530 ca         1 G59      -0.072000
      7 C26         -5.0570    -1.8030    -1.7610 ca         1 G59      -0.154500
      8 C29         -6.0520    -1.1980     0.7590 ca         1 G59      -0.072000
      9 C28         -6.9240    -1.6220    -0.2370 ca         1 G59      -0.154500
     10 C27         -6.4060    -1.9190    -1.4800 ca         1 G59       0.171000
     11 F30         -7.2400    -2.3310    -2.4490 f          1 G59      -0.181000
     12 C17         -0.8080     1.5030     0.7150 cc         1 G59      -0.375600
     13 C5           0.5780     1.5670     0.5430 cd         1 G59       0.332000
     14 N4           0.8740     2.8510     0.2880 na         1 G59       0.073800
     15 N19         -0.2200     3.6440     0.2890 nd         1 G59      -0.525800
     16 C18         -1.2230     2.8440     0.5370 cc         1 G59       0.299900
     17 N6           1.5320     0.6110     0.5800 nu         1 G59      -0.940200
     18 C1           2.9210     1.0120     0.7040 c6         1 G59       0.277800
     19 C2           3.1490     2.2290    -0.1930 c6         1 G59      -0.110400
     20 C3           2.2220     3.3890     0.1610 c6         1 G59       0.109300
     21 C13          2.2820     4.4950    -0.8740 c3         1 G59      -0.094100
     22 C7           3.8300    -0.1280     0.3260 ca         1 G59      -0.111300
     23 C8           3.6090    -0.8770    -0.8260 ca         1 G59      -0.088500
     24 C9           4.4730    -1.9050    -1.1740 ca         1 G59      -0.111000
     25 C10          5.5800    -2.2160    -0.3880 ca         1 G59      -0.064300
     26 C32          6.5330    -3.3090    -0.7860 c3         1 G59      -0.034100
     27 C33          7.7750    -2.7610    -1.4880 c3         1 G59      -0.087100
     28 C11          5.7980    -1.4610     0.7620 ca         1 G59      -0.111000
     29 C12          4.9340    -0.4340     1.1150 ca         1 G59      -0.088500
     30 HN21        -3.2930     1.3340     1.0930 hn         1 G59       0.312500
     31 H231        -3.1460    -1.4800     1.9500 h1         1 G59       0.063200
     32 H232        -4.3440    -0.3210     2.4870 h1         1 G59       0.063200
     33 H25         -3.1470    -1.2910    -0.9650 ha         1 G59       0.121500
     34 H26         -4.6800    -2.0410    -2.7470 ha         1 G59       0.131500
     35 H29         -6.4520    -0.9530     1.7360 ha         1 G59       0.121500
     36 H28         -7.9850    -1.7100    -0.0470 ha         1 G59       0.131500
     37 H18         -2.2260     3.2450     0.5820 h4         1 G59       0.031100
     38 HN6          1.2460    -0.2610     0.9970 hn         1 G59       0.529000
     39 H49          3.1450     1.3030     1.7400 h1         1 G59       0.043700
     40 H21          4.1800     2.5660    -0.0890 hc         1 G59       0.069700
     41 H22          3.0020     1.9400    -1.2380 hc         1 G59       0.069700
     42 H3           2.5150     3.7850     1.1390 h1         1 G59       0.059700
     43 H133         1.6630     5.3450    -0.5950 hc         1 G59       0.052367
     44 H131         3.3100     4.8460    -0.9660 hc         1 G59       0.052367
     45 H132         1.9570     4.1340    -1.8510 hc         1 G59       0.052367
     46 H8           2.7520    -0.6670    -1.4550 ha         1 G59       0.118500
     47 H9           4.2790    -2.4790    -2.0730 ha         1 G59       0.114500
     48 H321         6.8380    -3.8710     0.1000 hc         1 G59       0.048200
     49 H322         6.0240    -4.0160    -1.4450 hc         1 G59       0.048200
     50 H332         7.5070    -2.2190    -2.3960 hc         1 G59       0.035367
     51 H333         8.3220    -2.0750    -0.8390 hc         1 G59       0.035367
     52 H331         8.4530    -3.5690    -1.7670 hc         1 G59       0.035367
     53 H11          6.6450    -1.6840     1.4000 ha         1 G59       0.114500
     54 H12          5.1150     0.1300     2.0230 ha         1 G59       0.118500
@<TRIPOS>BOND
     1     1     2 2   
     2     2     3 1   
     3     2    12 1   
     4     3     4 1   
     5     3    30 1   
     6     4     5 1   
     7     4    31 1   
     8     4    32 1   
     9     5     6 ar  
    10     5     8 ar  
    11     6     7 ar  
    12     6    33 1   
    13     7    10 ar  
    14     7    34 1   
    15     8     9 ar  
    16     8    35 1   
    17     9    10 ar  
    18     9    36 1   
    19    10    11 1   
    20    12    13 2   
    21    12    16 1   
    22    13    14 1   
    23    13    17 1   
    24    14    15 1   
    25    14    20 1   
    26    15    16 2   
    27    16    37 1   
    28    17    18 1   
    29    17    38 1   
    30    18    19 1   
    31    18    22 1   
    32    18    39 1   
    33    19    20 1   
    34    19    40 1   
    35    19    41 1   
    36    20    21 1   
    37    20    42 1   
    38    21    43 1   
    39    21    44 1   
    40    21    45 1   
    41    22    23 ar  
    42    22    29 ar  
    43    23    24 ar  
    44    23    46 1   
    45    24    25 ar  
    46    24    47 1   
    47    25    26 1   
    48    25    28 ar  
    49    26    27 1   
    50    26    48 1   
    51    26    49 1   
    52    27    50 1   
    53    27    51 1   
    54    27    52 1   
    55    28    29 ar  
    56    28    53 1   
    57    29    54 1   
@<TRIPOS>SUBSTRUCTURE
     1 G59         1 TEMP              0 ****  ****    0 ROOT
