@<TRIPOS>MOLECULE
G59
   54    57     1     0     0
SMALL
No Charge or Current Charge


@<TRIPOS>ATOM
      1 O22         -0.7070    -1.4360     0.6550 o          1 G59      -0.655100
      2 C20         -1.3300    -0.4270     0.3570 c          1 G59       0.668700
      3 N21         -2.6930    -0.4290     0.2160 ns         1 G59      -0.503900
      4 C23         -3.5360    -1.6050     0.3980 c3         1 G59       0.150300
      5 C24         -4.9990    -1.2640     0.1650 ca         1 G59      -0.126300
      6 C25         -5.5550    -1.3730    -1.1250 ca         1 G59      -0.072000
      7 C26         -6.9080    -1.0520    -1.3410 ca         1 G59      -0.154500
      8 C29         -5.8040    -0.8270     1.2360 ca         1 G59      -0.072000
      9 C28         -7.1560    -0.5070     1.0190 ca         1 G59      -0.154500
     10 C27         -7.7030    -0.6210    -0.2680 ca         1 G59       0.171000
     11 F30         -9.0020    -0.3120    -0.4770 f          1 G59      -0.181000
     12 C17         -0.7110     0.8770     0.1230 cc         1 G59      -0.375600
     13 C5           0.6020     1.1710     0.1880 cd         1 G59       0.332000
     14 N4           0.7030     2.5290    -0.1060 na         1 G59       0.073800
     15 N19         -0.5350     3.1200    -0.3460 nd         1 G59      -0.525800
     16 C18         -1.3510     2.0870    -0.2060 cc         1 G59       0.299900
     17 N6           1.6810     0.3880     0.4730 nu         1 G59      -0.940200
     18 C1           3.0110     0.9830     0.6640 c6         1 G59       0.277800
     19 C2           3.1580     2.2170    -0.2760 c6         1 G59      -0.110400
     20 C3           2.0010     3.2500    -0.0910 c6         1 G59       0.109300
     21 C13          2.0990     4.3960    -1.1350 c3         1 G59      -0.094100
     22 C7           4.1040    -0.0670     0.4330 ca         1 G59      -0.111300
     23 C8           4.2030    -0.7500    -0.7970 ca         1 G59      -0.088500
     24 C9           5.2120    -1.7070    -1.0010 ca         1 G59      -0.111000
     25 C10          6.1350    -1.9960     0.0220 ca         1 G59      -0.064300
     26 C32          7.2310    -3.0300    -0.2010 c3         1 G59      -0.034100
     27 C33          8.5120    -2.4020    -0.7820 c3         1 G59      -0.087100
     28 C11          6.0370    -1.3170     1.2500 ca         1 G59      -0.111000
     29 C12          5.0280    -0.3590     1.4550 ca         1 G59      -0.088500
     30 HN21        -3.1350     0.4450    -0.0320 hn         1 G59       0.312500
     31 H231        -3.2180    -2.3870    -0.3050 h1         1 G59       0.063200
     32 H232        -3.3990    -1.9900     1.4180 h1         1 G59       0.063200
     33 H25         -4.9410    -1.7050    -1.9600 ha         1 G59       0.121500
     34 H26         -7.3380    -1.1360    -2.3350 ha         1 G59       0.131500
     35 H29         -5.3830    -0.7350     2.2360 ha         1 G59       0.121500
     36 H28         -7.7790    -0.1700     1.8440 ha         1 G59       0.131500
     37 H18         -2.4110     2.2530    -0.3430 h4         1 G59       0.031100
     38 HN6          1.4830    -0.5720     0.7660 hn         1 G59       0.529000
     39 H49          3.0900     1.3420     1.7020 h1         1 G59       0.043700
     40 H21          4.1250     2.7040    -0.0920 hc         1 G59       0.069700
     41 H22          3.1760     1.8790    -1.3200 hc         1 G59       0.069700
     42 H3           2.1050     3.7010     0.9050 h1         1 G59       0.059700
     43 H133         1.3340     5.1620    -0.9570 hc         1 G59       0.052367
     44 H131         3.0760     4.8910    -1.0870 hc         1 G59       0.052367
     45 H132         1.9630     4.0180    -2.1550 hc         1 G59       0.052367
     46 H8           3.4950    -0.5410    -1.5960 ha         1 G59       0.118500
     47 H9           5.2770    -2.2230    -1.9560 ha         1 G59       0.114500
     48 H321         7.4770    -3.5310     0.7430 hc         1 G59       0.048200
     49 H322         6.8790    -3.8150    -0.8810 hc         1 G59       0.048200
     50 H332         8.3050    -1.9280    -1.7490 hc         1 G59       0.035367
     51 H333         8.9110    -1.6400    -0.1010 hc         1 G59       0.035367
     52 H331         9.2810    -3.1690    -0.9310 hc         1 G59       0.035367
     53 H11          6.7460    -1.5280     2.0480 ha         1 G59       0.114500
     54 H12          4.9690     0.1570     2.4110 ha         1 G59       0.118500
@<TRIPOS>BOND
     1     1     2 2   
     2     2     3 1   
     3     2    12 1   
     4     3     4 1   
     5     3    30 1   
     6     4     5 1   
     7     4    31 1   
     8     4    32 1   
     9     5     6 ar  
    10     5     8 ar  
    11     6     7 ar  
    12     6    33 1   
    13     7    10 ar  
    14     7    34 1   
    15     8     9 ar  
    16     8    35 1   
    17     9    10 ar  
    18     9    36 1   
    19    10    11 1   
    20    12    13 2   
    21    12    16 1   
    22    13    14 1   
    23    13    17 1   
    24    14    15 1   
    25    14    20 1   
    26    15    16 2   
    27    16    37 1   
    28    17    18 1   
    29    17    38 1   
    30    18    19 1   
    31    18    22 1   
    32    18    39 1   
    33    19    20 1   
    34    19    40 1   
    35    19    41 1   
    36    20    21 1   
    37    20    42 1   
    38    21    43 1   
    39    21    44 1   
    40    21    45 1   
    41    22    23 ar  
    42    22    29 ar  
    43    23    24 ar  
    44    23    46 1   
    45    24    25 ar  
    46    24    47 1   
    47    25    26 1   
    48    25    28 ar  
    49    26    27 1   
    50    26    48 1   
    51    26    49 1   
    52    27    50 1   
    53    27    51 1   
    54    27    52 1   
    55    28    29 ar  
    56    28    53 1   
    57    29    54 1   
@<TRIPOS>SUBSTRUCTURE
     1 G59         1 TEMP              0 ****  ****    0 ROOT
