@<TRIPOS>MOLECULE
G5A
   44    46     1     0     0
SMALL
bcc


@<TRIPOS>ATOM
      1 H           -2.5050     1.9280     0.1560 c          1 G5A       0.329000
      2 H           -1.0880     3.0890     1.7370 n8         1 G5A      -0.325000
      3 H           -1.6800     1.9300    -0.7230 o          1 G5A      -0.266000
      4 H           -3.8970    -0.0060    -1.0890 s6         1 G5A       2.681000
      5 H1           5.2750     1.3580    -1.2220 nb         1 G5A      -0.302000
      6 H2           4.9920     0.0700    -1.3930 ca         1 G5A       0.046000
      7 H3           3.9120    -0.5920    -1.0130 nb         1 G5A      -0.217000
      8 H4           3.0450     0.2000    -0.3880 ca         1 G5A       0.080000
      9 H5           3.1970     1.5530    -0.1370 ca         1 G5A      -0.238000
     10 H6           4.3910     2.1410    -0.5920 ca         1 G5A       0.258000
     11 H6           4.6690     3.4340    -0.4210 nv         1 G5A      -0.355000
     12 H7           2.1030     2.0510     0.5250 n2         1 G5A      -0.132000
     13 H8           1.3160     1.0290     0.6730 cc         1 G5A      -0.031000
     14 H9           1.8300    -0.1290     0.1470 na         1 G5A      -0.172000
     15 HA          -2.4610     2.8410     1.3580 c3         1 G5A      -0.115000
     16 H1           1.2190    -1.4250     0.0840 c5         1 G5A       0.171000
     17 H1S         -5.0170    -0.7840    -0.6230 o          1 G5A      -0.883000
     18 H7           0.7130    -1.9650     1.4170 c5         1 G5A      -0.054000
     19 H2           1.7740    -2.4760     2.1630 oh         1 G5A      -0.295000
     20 H2S         -3.9270     0.6490    -2.3660 o          1 G5A      -0.883000
     21 H3          -0.2970    -3.0130     0.9340 c5         1 G5A      -0.028000
     22 H3           0.3500    -4.1830     0.5150 oh         1 G5A      -0.304000
     23 H3S         -3.5950     1.0790     0.1340 n7         1 G5A      -0.877000
     24 H9          -0.8880    -2.3180    -0.2940 c5         1 G5A       0.037000
     25 H4           0.0820    -1.3730    -0.7380 os         1 G5A      -0.233000
     26 H10         -2.1850    -1.6160     0.0470 c3         1 G5A       0.014000
     27 H5          -2.5800    -0.8840    -1.1260 os         1 G5A      -0.653000
     28 HN          -0.6050     3.5930     1.0050 ha         1 G5A       0.160000
     29 HNA         -1.0730     3.6870     2.5530 ha         1 G5A       0.160000
     30 HN6          4.0190     4.0500     0.0340 ha         1 G5A       0.245500
     31 HN6A         5.5280     3.8200    -0.7740 ha         1 G5A       0.245500
     32 H8           0.3520     1.0790     1.1570 ha         1 G5A       0.206000
     33 HA          -3.0410     3.7360     1.0850 ha         1 G5A       0.090500
     34 HAA         -2.9860     2.3820     2.1970 ha         1 G5A       0.090500
     35 H1           1.9810    -2.0970    -0.3250 ha         1 G5A       0.161000
     36 H2           0.1760    -1.1760     1.9610 ha         1 G5A       0.090000
     37 HO2          1.5080    -2.5360     3.0860 ha         1 G5A       0.214000
     38 HN3S        -4.2460     1.0590     0.9100 ha         1 G5A       0.258000
     39 H4          -1.0760    -3.0460    -1.0880 ha         1 G5A       0.148000
     40 H5          -2.9430    -2.3570     0.3060 ha         1 G5A       0.090000
     41 H5'A        -2.0590    -0.9280     0.8890 ha         1 G5A       0.090000
     42 H16         -1.0620    -3.2200     1.6950 ha         1 G5A       0.090000
     43 H17          0.9930    -4.4250     1.1920 ha         1 G5A       0.226000
     44 H3           5.7490    -0.5090    -1.9120 ha         1 G5A       0.183000
@<TRIPOS>BOND
     1     1     3 2   
     2     1    15 1   
     3     1    23 1   
     4     2    15 1   
     5     2    28 1   
     6     2    29 1   
     7     4    17 2   
     8     4    20 2   
     9     4    23 1   
    10     4    27 1   
    11     5     6 ar  
    12     5    10 ar  
    13     6     7 ar  
    14     6    44 1   
    15     7     8 ar  
    16     8     9 ar  
    17     8    14 1   
    18     9    10 ar  
    19     9    12 1   
    20    10    11 1   
    21    11    30 1   
    22    11    31 1   
    23    12    13 2   
    24    13    14 1   
    25    13    32 1   
    26    14    16 1   
    27    15    33 1   
    28    15    34 1   
    29    16    18 1   
    30    16    25 1   
    31    16    35 1   
    32    18    19 1   
    33    18    21 1   
    34    18    36 1   
    35    19    37 1   
    36    21    22 1   
    37    21    24 1   
    38    21    42 1   
    39    22    43 1   
    40    23    38 1   
    41    24    25 1   
    42    24    26 1   
    43    24    39 1   
    44    26    27 1   
    45    26    40 1   
    46    26    41 1   
@<TRIPOS>SUBSTRUCTURE
     1 G5A         1 TEMP              0 ****  ****    0 ROOT
