@<TRIPOS>MOLECULE
G5A
   44    46     1     0     0
SMALL
abcg2


@<TRIPOS>ATOM
      1 C           -2.5050     1.9280     0.1560 c          1 G5A       0.618100
      2 N           -1.0880     3.0890     1.7370 n8         1 G5A      -1.003200
      3 O           -1.6800     1.9300    -0.7230 o          1 G5A      -0.505100
      4 S           -3.8970    -0.0060    -1.0890 s6         1 G5A       1.439500
      5 N1           5.2750     1.3580    -1.2220 nb         1 G5A      -0.302000
      6 C2           4.9920     0.0700    -1.3930 ca         1 G5A       0.182900
      7 N3           3.9120    -0.5920    -1.0130 nb         1 G5A      -0.217000
      8 C4           3.0450     0.2000    -0.3880 ca         1 G5A       0.143500
      9 C5           3.1970     1.5530    -0.1370 ca         1 G5A      -0.098600
     10 C6           4.3910     2.1410    -0.5920 ca         1 G5A       0.450900
     11 N6           4.6690     3.4340    -0.4210 nv         1 G5A      -1.067900
     12 N7           2.1030     2.0510     0.5250 nc         1 G5A      -0.559100
     13 C8           1.3160     1.0290     0.6730 cd         1 G5A       0.424700
     14 N9           1.8300    -0.1290     0.1470 na         1 G5A      -0.284300
     15 CA          -2.4610     2.8410     1.3580 c3         1 G5A       0.071800
     16 C1           1.2190    -1.4250     0.0840 c5         1 G5A       0.315300
     17 O1S         -5.0170    -0.7840    -0.6230 o          1 G5A      -0.533000
     18 C7           0.7130    -1.9650     1.4170 c5         1 G5A       0.080300
     19 O2           1.7740    -2.4760     2.1630 oh         1 G5A      -0.690000
     20 O2S         -3.9270     0.6490    -2.3660 o          1 G5A      -0.533000
     21 C3          -0.2970    -3.0130     0.9340 c5         1 G5A       0.106300
     22 O3           0.3500    -4.1830     0.5150 oh         1 G5A      -0.699000
     23 N3S         -3.5950     1.0790     0.1340 ns         1 G5A      -0.631300
     24 C9          -0.8880    -2.3180    -0.2940 c5         1 G5A       0.171300
     25 O4           0.0820    -1.3730    -0.7380 os         1 G5A      -0.423000
     26 C10         -2.1850    -1.6160     0.0470 c3         1 G5A       0.187600
     27 O5          -2.5800    -0.8840    -1.1260 os         1 G5A      -0.538700
     28 HN          -0.6050     3.5930     1.0050 hn         1 G5A       0.420000
     29 HNA         -1.0730     3.6870     2.5530 hn         1 G5A       0.420000
     30 HN6          4.0190     4.0500     0.0340 hn         1 G5A       0.505500
     31 HN6A         5.5280     3.8200    -0.7740 hn         1 G5A       0.505500
     32 H8           0.3520     1.0790     1.1570 h5         1 G5A       0.076800
     33 HA          -3.0410     3.7360     1.0850 h1         1 G5A       0.051200
     34 HAA         -2.9860     2.3820     2.1970 h1         1 G5A       0.051200
     35 H1           1.9810    -2.0970    -0.3250 h2         1 G5A       0.121700
     36 H2           0.1760    -1.1760     1.9610 h1         1 G5A       0.050700
     37 HO2          1.5080    -2.5360     3.0860 ho         1 G5A       0.514000
     38 HN3S        -4.2460     1.0590     0.9100 hn         1 G5A       0.344500
     39 H4          -1.0760    -3.0460    -1.0880 h1         1 G5A       0.108700
     40 H5          -2.9430    -2.3570     0.3060 h1         1 G5A       0.050700
     41 H5'A        -2.0590    -0.9280     0.8890 h1         1 G5A       0.050700
     42 H16         -1.0620    -3.2200     1.6950 h1         1 G5A       0.050700
     43 H17          0.9930    -4.4250     1.1920 ho         1 G5A       0.526000
     44 H3           5.7490    -0.5090    -1.9120 h5         1 G5A       0.046100
@<TRIPOS>BOND
     1     1     3 2   
     2     1    15 1   
     3     1    23 1   
     4     2    15 1   
     5     2    28 1   
     6     2    29 1   
     7     4    17 2   
     8     4    20 2   
     9     4    23 1   
    10     4    27 1   
    11     5     6 ar  
    12     5    10 ar  
    13     6     7 ar  
    14     6    44 1   
    15     7     8 ar  
    16     8     9 ar  
    17     8    14 1   
    18     9    10 ar  
    19     9    12 1   
    20    10    11 1   
    21    11    30 1   
    22    11    31 1   
    23    12    13 2   
    24    13    14 1   
    25    13    32 1   
    26    14    16 1   
    27    15    33 1   
    28    15    34 1   
    29    16    18 1   
    30    16    25 1   
    31    16    35 1   
    32    18    19 1   
    33    18    21 1   
    34    18    36 1   
    35    19    37 1   
    36    21    22 1   
    37    21    24 1   
    38    21    42 1   
    39    22    43 1   
    40    23    38 1   
    41    24    25 1   
    42    24    26 1   
    43    24    39 1   
    44    26    27 1   
    45    26    40 1   
    46    26    41 1   
@<TRIPOS>SUBSTRUCTURE
     1 G5A         1 TEMP              0 ****  ****    0 ROOT
