@<TRIPOS>MOLECULE
G5A
   44    46     1     0     0
SMALL
No Charge or Current Charge


@<TRIPOS>ATOM
      1 C           -2.3720     2.3830    -0.3140 c          1 G5A       0.618100
      2 N           -0.4880     3.3150     1.2330 n8         1 G5A      -1.003200
      3 O           -2.6260     2.2410    -1.5010 o          1 G5A      -0.505100
      4 S           -3.7420     0.1810     0.4880 s6         1 G5A       1.439500
      5 N1           4.1720     1.8480     1.4830 nb         1 G5A      -0.302000
      6 C2           4.1750     0.5000     1.6030 ca         1 G5A       0.182900
      7 N3           3.3290    -0.3680     0.9990 nb         1 G5A      -0.217000
      8 C4           2.3890     0.1810     0.2020 ca         1 G5A       0.143500
      9 C5           2.3000     1.5360     0.0140 ca         1 G5A      -0.098600
     10 C6           3.2260     2.3630     0.6830 ca         1 G5A       0.450900
     11 N6           3.2300     3.7160     0.5460 nv         1 G5A      -1.067900
     12 N7           1.2740     1.8870    -0.8540 nc         1 G5A      -0.559100
     13 C8           0.7590     0.6860    -1.1790 cd         1 G5A       0.424700
     14 N9           1.3980    -0.3990    -0.5510 na         1 G5A      -0.284300
     15 CA          -1.5830     3.6090     0.2430 c3         1 G5A       0.071800
     16 C1           1.1270    -1.8190    -0.7670 c5         1 G5A       0.315300
     17 O1S         -3.9850    -0.3410     1.8360 o          1 G5A      -0.533000
     18 C7           1.1070    -2.7290     0.5240 c5         1 G5A       0.080300
     19 O2           2.2800    -3.5540     0.6860 oh         1 G5A      -0.690000
     20 O2S         -4.8540     0.5380    -0.3990 o          1 G5A      -0.533000
     21 C3          -0.1530    -3.6140     0.2960 c5         1 G5A       0.106300
     22 O3           0.2010    -4.7590    -0.4880 oh         1 G5A      -0.699000
     23 N3S         -2.7360     1.4890     0.6390 ns         1 G5A      -0.631300
     24 C9          -1.0770    -2.6090    -0.4580 c5         1 G5A       0.171300
     25 O4          -0.1690    -1.9770    -1.3940 os         1 G5A      -0.423000
     26 C10         -1.7630    -1.5580     0.4650 c3         1 G5A       0.187600
     27 O5          -2.7300    -0.8330    -0.3170 os         1 G5A      -0.538700
     28 HN           0.2580     2.7920     0.7430 hn         1 G5A       0.420000
     29 HNA         -0.0160     4.1900     1.4940 hn         1 G5A       0.420000
     30 HN6          2.7190     4.0880    -0.2500 hn         1 G5A       0.505500
     31 HN6A         4.0740     4.2170     0.8110 hn         1 G5A       0.505500
     32 H8          -0.0690     0.5290    -1.8620 h5         1 G5A       0.076800
     33 HA          -1.1510     4.1480    -0.6120 h1         1 G5A       0.051200
     34 HAA         -2.3150     4.2700     0.7270 h1         1 G5A       0.051200
     35 H1           1.9030    -2.1690    -1.4610 h2         1 G5A       0.121700
     36 H2           0.9600    -2.1070     1.4180 h1         1 G5A       0.050700
     37 HO2          2.9990    -2.9790     1.0440 ho         1 G5A       0.514000
     38 HN3S        -2.4680     1.6550     1.5930 hn         1 G5A       0.344500
     39 H4          -1.8630    -3.1370    -1.0130 h1         1 G5A       0.108700
     40 H5          -2.2510    -2.1050     1.2830 h1         1 G5A       0.050700
     41 H5'A        -1.0180    -0.8810     0.9020 h1         1 G5A       0.050700
     42 H16         -0.5960    -3.9320     1.2500 h1         1 G5A       0.050700
     43 H17          1.1690    -4.8600    -0.2980 ho         1 G5A       0.526000
     44 H3           4.9370     0.0680     2.2490 h5         1 G5A       0.046100
@<TRIPOS>BOND
     1     1     3 2   
     2     1    15 1   
     3     1    23 1   
     4     2    15 1   
     5     2    28 1   
     6     2    29 1   
     7     4    17 2   
     8     4    20 2   
     9     4    23 1   
    10     4    27 1   
    11     5     6 ar  
    12     5    10 ar  
    13     6     7 ar  
    14     6    44 1   
    15     7     8 ar  
    16     8     9 ar  
    17     8    14 1   
    18     9    10 ar  
    19     9    12 1   
    20    10    11 1   
    21    11    30 1   
    22    11    31 1   
    23    12    13 2   
    24    13    14 1   
    25    13    32 1   
    26    14    16 1   
    27    15    33 1   
    28    15    34 1   
    29    16    18 1   
    30    16    25 1   
    31    16    35 1   
    32    18    19 1   
    33    18    21 1   
    34    18    36 1   
    35    19    37 1   
    36    21    22 1   
    37    21    24 1   
    38    21    42 1   
    39    22    43 1   
    40    23    38 1   
    41    24    25 1   
    42    24    26 1   
    43    24    39 1   
    44    26    27 1   
    45    26    40 1   
    46    26    41 1   
@<TRIPOS>SUBSTRUCTURE
     1 G5A         1 TEMP              0 ****  ****    0 ROOT
