@<TRIPOS>MOLECULE
G5B
   55    57     1     0     0
SMALL
No Charge or Current Charge


@<TRIPOS>ATOM
      1 N1           4.8550     0.5620     0.7180 ns         1 G5B      -0.481500
      2 C2          -1.3830     2.0960     0.0260 c6         1 G5B       0.150300
      3 C4          -3.5010     0.5210     0.0310 c6         1 G5B      -0.031000
      4 C5          -1.0080    -0.5060     0.4160 c6         1 G5B      -0.017000
      5 C6          -0.1540    -1.7240    -0.1620 c6         1 G5B      -0.018500
      6 O2           5.4730     2.3240    -0.6500 o          1 G5B      -0.498000
      7 C7          -3.0970    -2.0790     0.3020 c6         1 G5B      -0.066400
      8 C8          -2.1950    -3.2550    -0.1350 c6         1 G5B      -0.047200
      9 C1          -0.4500     0.8590    -0.1190 c6         1 G5B      -0.083400
     10 C11          1.4180    -1.7110     0.0340 c3         1 G5B      -0.113400
     11 C12         -2.4960    -0.7010    -0.1400 c6         1 G5B      -0.047700
     12 C13         -0.8990    -0.5470     1.9880 c3         1 G5B      -0.087100
     13 C14         -4.0490     0.7270     1.4880 c3         1 G5B      -0.090600
     14 C16          2.2890    -0.8120    -0.8960 c3         1 G5B       0.184300
     15 C17          3.8250    -0.9470    -0.6740 c5         1 G5B      -0.188700
     16 C18          4.2220    -0.6340     0.7840 c          1 G5B       0.574000
     17 C19          5.1210     1.1600    -0.4780 c          1 G5B       0.569000
     18 C20          4.6970     0.0830    -1.4970 c5         1 G5B      -0.166400
     19 C3          -2.8150     1.8330    -0.5150 c6         1 G5B       0.157300
     20 C9          -0.7700    -3.0460     0.3460 c2         1 G5B      -0.096400
     21 O1           2.0030    -1.1520    -2.2590 oh         1 G5B      -0.653000
     22 O3           4.1840    -1.3350     1.7800 o          1 G5B      -0.505000
     23 Cl1         -1.3410     2.8340     1.7270 cl         1 G5B      -0.289000
     24 Cl2         -2.7140     1.8210    -2.3790 cl         1 G5B      -0.305000
     25 H1           5.1400     0.9920     1.5890 hn         1 G5B       0.345500
     26 H2          -0.9490     2.9070    -0.5760 h1         1 G5B       0.084700
     27 H3          -0.2820    -1.7380    -1.2530 hc         1 G5B       0.063700
     28 H4          -4.0880    -2.2400    -0.1390 hc         1 G5B       0.045700
     29 H5          -3.2400    -2.1110     1.3890 hc         1 G5B       0.045700
     30 H6          -2.6060    -4.1980     0.2520 hc         1 G5B       0.048200
     31 H7          -2.2040    -3.3420    -1.2300 hc         1 G5B       0.048200
     32 H8          -0.2070     0.7510    -1.1850 hc         1 G5B       0.063700
     33 H9           0.4920     1.1000     0.3890 hc         1 G5B       0.063700
     34 H10         -4.6010    -0.1200    -1.8060 hc         1 G5B       0.042033
     35 H11         -5.4710    -0.4730    -0.3200 hc         1 G5B       0.042033
     36 H12         -5.4030     1.1780    -0.9140 hc         1 G5B       0.042033
     37 H13          1.6520    -1.4840     1.0780 hc         1 G5B       0.063200
     38 H14          1.7930    -2.7280    -0.1300 hc         1 G5B       0.063200
     39 H15         -2.3780    -0.7940    -1.2290 hc         1 G5B       0.052700
     40 H16         -1.4350     0.2520     2.4900 hc         1 G5B       0.041367
     41 H17         -1.2730    -1.4840     2.4140 hc         1 G5B       0.041367
     42 H18          0.1400    -0.4450     2.3190 hc         1 G5B       0.041367
     43 H19         -4.8380     1.4890     1.5020 hc         1 G5B       0.042033
     44 H20         -4.4930    -0.1900     1.8920 hc         1 G5B       0.042033
     45 H21         -3.3080     1.0670     2.2060 hc         1 G5B       0.042033
     46 H22         -0.7090    -4.8150     1.5270 ha         1 G5B       0.162500
     47 H23          0.8100    -3.7750     1.6030 ha         1 G5B       0.162500
     48 H24          2.0440     0.2410    -0.7220 h1         1 G5B       0.078700
     49 H25          4.0820    -1.9940    -0.8770 hc         1 G5B       0.083700
     50 H26          5.6120    -0.4130    -1.8410 hc         1 G5B       0.094700
     51 H27          4.2240     0.5380    -2.3740 hc         1 G5B       0.094700
     52 H28         -3.4490     2.7030    -0.2920 h1         1 G5B       0.087700
     53 H29          2.2700    -2.0880    -2.3830 ho         1 G5B       0.444000
     54 C10         -4.8130     0.2600    -0.8000 c3         1 G5B      -0.090600
     55 C15         -0.1880    -3.9180     1.1920 c2         1 G5B      -0.332000
@<TRIPOS>BOND
     1     1    16 1   
     2     1    17 1   
     3     1    25 1   
     4     2     9 1   
     5     2    19 1   
     6     2    23 1   
     7     2    26 1   
     8     3    11 1   
     9     3    13 1   
    10     3    19 1   
    11     3    54 1   
    12     4     5 1   
    13     4     9 1   
    14     4    11 1   
    15     4    12 1   
    16     5    10 1   
    17     5    20 1   
    18     5    27 1   
    19     6    17 2   
    20     7     8 1   
    21     7    11 1   
    22     7    28 1   
    23     7    29 1   
    24     8    20 1   
    25     8    30 1   
    26     8    31 1   
    27     9    32 1   
    28     9    33 1   
    29    10    14 1   
    30    10    37 1   
    31    10    38 1   
    32    11    39 1   
    33    12    40 1   
    34    12    41 1   
    35    12    42 1   
    36    13    43 1   
    37    13    44 1   
    38    13    45 1   
    39    14    15 1   
    40    14    21 1   
    41    14    48 1   
    42    15    16 1   
    43    15    18 1   
    44    15    49 1   
    45    16    22 2   
    46    17    18 1   
    47    18    50 1   
    48    18    51 1   
    49    19    24 1   
    50    19    52 1   
    51    20    55 2   
    52    21    53 1   
    53    34    54 1   
    54    35    54 1   
    55    36    54 1   
    56    46    55 1   
    57    47    55 1   
@<TRIPOS>SUBSTRUCTURE
     1 G5B         1 TEMP              0 ****  ****    0 ROOT
