@<TRIPOS>MOLECULE
G5B
   55    57     1     0     0
SMALL
bcc


@<TRIPOS>ATOM
      1 N1           4.9740     1.2140    -0.0330 ns         1 G5B      -0.615500
      2 C2          -1.4490     2.0330     0.6520 c6         1 G5B       0.073700
      3 C4          -3.4890     0.4740     0.1900 c6         1 G5B      -0.031000
      4 C5          -1.0730    -0.5380     0.6020 c6         1 G5B      -0.017000
      5 C6          -0.1130    -1.5540    -0.1150 c6         1 G5B      -0.018500
      6 O2           6.4880     1.1310    -1.7460 o          1 G5B      -0.573500
      7 C7          -3.0240    -2.0500     0.0190 c6         1 G5B      -0.066400
      8 C8          -2.0660    -3.0690    -0.5940 c6         1 G5B      -0.047200
      9 C1          -0.5180     0.8740     0.3610 c6         1 G5B      -0.083400
     10 C11          1.3590    -1.4100     0.3090 c3         1 G5B      -0.113400
     11 C12         -2.4520    -0.6410    -0.1100 c6         1 G5B      -0.047700
     12 C13         -1.1030    -0.8920     2.0930 c3         1 G5B      -0.087100
     13 C14         -4.1430     0.3870     1.5810 c3         1 G5B      -0.090600
     14 C16          2.2560    -0.9700    -0.8420 c3         1 G5B       0.161100
     15 C17          3.7090    -0.7130    -0.4090 c5         1 G5B      -0.188700
     16 C18          3.8990     0.5190     0.4610 c          1 G5B       0.716500
     17 C19          5.5180     0.6890    -1.1800 c          1 G5B       0.711500
     18 C20          4.6650    -0.4830    -1.5820 c5         1 G5B      -0.166400
     19 C3          -2.8320     1.8600     0.0340 c6         1 G5B       0.080700
     20 C9          -0.6850    -2.9510    -0.0130 c2         1 G5B      -0.096400
     21 O1           2.2330    -1.9150    -1.8900 oh         1 G5B      -0.590800
     22 O3           3.2630     0.8560     1.4300 o          1 G5B      -0.580500
     23 CL1         -1.5870     2.3930     2.4270 cl         1 G5B      -0.212400
     24 CL2         -2.5680     2.2600    -1.7310 cl         1 G5B      -0.228400
     25 H1           5.3330     2.0500     0.4120 hn         1 G5B       0.345500
     26 H2          -1.0050     2.9470     0.2630 h1         1 G5B       0.084700
     27 H3          -0.1770    -1.2980    -1.1820 hc         1 G5B       0.063700
     28 H4          -3.9830    -2.1260    -0.4950 hc         1 G5B       0.045700
     29 H5          -3.2120    -2.3010     1.0660 hc         1 G5B       0.045700
     30 H6          -2.4490    -4.0830    -0.4600 hc         1 G5B       0.048200
     31 H7          -2.0140    -2.8880    -1.6740 hc         1 G5B       0.048200
     32 H8          -0.2780     0.9680    -0.7040 hc         1 G5B       0.063700
     33 H9           0.4200     1.0460     0.8910 hc         1 G5B       0.063700
     34 H10         -4.3260     0.1860    -1.8260 hc         1 G5B       0.042033
     35 H11         -5.3320    -0.4420    -0.5260 hc         1 G5B       0.042033
     36 H12         -5.2480     1.2860    -0.7980 hc         1 G5B       0.042033
     37 H13          1.4650    -0.7050     1.1310 hc         1 G5B       0.063200
     38 H14          1.7590    -2.3480     0.7020 hc         1 G5B       0.063200
     39 H15         -2.2230    -0.5110    -1.1780 hc         1 G5B       0.052700
     40 H16         -1.7920    -0.2870     2.6680 hc         1 G5B       0.041367
     41 H17         -1.3680    -1.9360     2.2530 hc         1 G5B       0.041367
     42 H18         -0.1180    -0.7410     2.5390 hc         1 G5B       0.041367
     43 H19         -4.9330     1.1360     1.6660 hc         1 G5B       0.042033
     44 H20         -4.6110    -0.5910     1.7030 hc         1 G5B       0.042033
     45 H21         -3.4670     0.5360     2.4140 hc         1 G5B       0.042033
     46 H22         -0.5980    -4.9680     0.5640 ha         1 G5B       0.112500
     47 H23          0.8920    -3.9840     0.9830 ha         1 G5B       0.112500
     48 H24          1.8660    -0.0450    -1.2820 h1         1 G5B       0.078700
     49 H25          4.0570    -1.5660     0.1860 hc         1 G5B       0.083700
     50 H26          5.2860    -1.3460    -1.8160 hc         1 G5B       0.094700
     51 H27          4.1340    -0.2130    -2.4980 hc         1 G5B       0.094700
     52 H28         -3.5100     2.6390     0.3840 h1         1 G5B       0.087700
     53 H29          2.4620    -2.7780    -1.5280 ho         1 G5B       0.405000
     54 C10         -4.6580     0.3680    -0.8040 c3         1 G5B      -0.090600
     55 C15         -0.0940    -4.0090     0.5390 c2         1 G5B      -0.232000
@<TRIPOS>BOND
     1     1    16 1   
     2     1    17 1   
     3     1    25 1   
     4     2     9 1   
     5     2    19 1   
     6     2    23 1   
     7     2    26 1   
     8     3    11 1   
     9     3    13 1   
    10     3    19 1   
    11     3    54 1   
    12     4     5 1   
    13     4     9 1   
    14     4    11 1   
    15     4    12 1   
    16     5    10 1   
    17     5    20 1   
    18     5    27 1   
    19     6    17 2   
    20     7     8 1   
    21     7    11 1   
    22     7    28 1   
    23     7    29 1   
    24     8    20 1   
    25     8    30 1   
    26     8    31 1   
    27     9    32 1   
    28     9    33 1   
    29    10    14 1   
    30    10    37 1   
    31    10    38 1   
    32    11    39 1   
    33    12    40 1   
    34    12    41 1   
    35    12    42 1   
    36    13    43 1   
    37    13    44 1   
    38    13    45 1   
    39    14    15 1   
    40    14    21 1   
    41    14    48 1   
    42    15    16 1   
    43    15    18 1   
    44    15    49 1   
    45    16    22 2   
    46    17    18 1   
    47    18    50 1   
    48    18    51 1   
    49    19    24 1   
    50    19    52 1   
    51    20    55 2   
    52    21    53 1   
    53    34    54 1   
    54    35    54 1   
    55    36    54 1   
    56    46    55 1   
    57    47    55 1   
@<TRIPOS>SUBSTRUCTURE
     1 G5B         1 TEMP              0 ****  ****    0 ROOT
