@<TRIPOS>MOLECULE
G5C
   47    50     1     0     0
SMALL
No Charge or Current Charge


@<TRIPOS>ATOM
      1 C10         -0.1190    35.3360     4.5240 c3         1 G5C       0.149900
      2 C12         -0.3820    38.9290     6.9020 ca         1 G5C      -0.005000
      3 C14         -0.3640    41.4940     6.8390 c5         1 G5C       0.102000
      4 C16         -1.7040    41.7640     4.8760 c5         1 G5C      -0.169400
      5 C19         -0.3280    38.8000     8.3040 ca         1 G5C      -0.157000
      6 C20         -0.0780    37.5550     8.9070 ca         1 G5C      -0.065000
      7 C22          1.3560    32.8310    11.1490 ca         1 G5C       0.194500
      8 C24          2.3970    32.8510    13.1810 cc         1 G5C      -0.021900
      9 N26          3.5750    33.6370    15.3540 n1         1 G5C      -0.479000
     10 C27          2.1080    31.5380    12.8360 cd         1 G5C      -0.128100
     11 N13         -0.7900    40.1760     6.3030 n          1 G5C      -0.243400
     12 C17         -1.7280    40.2880     5.2620 c          1 G5C       0.568000
     13 N21          0.8220    33.3220    10.0190 nb         1 G5C      -0.301000
     14 C23          1.9090    33.6590    12.0920 ca         1 G5C      -0.276800
     15 C25          3.0460    33.2620    14.3830 cg         1 G5C       0.320700
     16 C01          2.5320    37.4100    12.6440 c3         1 G5C       0.224100
     17 C03          1.9180    35.0430    11.8680 ca         1 G5C       0.470900
     18 C05          0.8580    34.6600     9.8830 ca         1 G5C       0.446900
     19 C07          0.0830    36.3940     8.1240 ca         1 G5C       0.267000
     20 C08         -0.0680    36.4970     6.7170 ca         1 G5C       0.118100
     21 C11         -0.3190    37.7560     6.1230 ca         1 G5C      -0.184000
     22 C15         -1.4290    42.4590     6.2320 c5         1 G5C      -0.092400
     23 N04          1.3880    35.5480    10.7430 nb         1 G5C      -0.339000
     24 N28          1.4620    31.5200    11.5750 na         1 G5C      -0.314400
     25 O09          0.0280    35.3380     5.9560 os         1 G5C      -0.353100
     26 O18         -2.5290    39.4260     4.9250 o          1 G5C      -0.535000
     27 H1          -0.0070    34.3180     4.1320 h1         1 G5C       0.044367
     28 H2          -1.1100    35.7050     4.2320 h1         1 G5C       0.044367
     29 H3           0.6460    35.9670     4.0520 h1         1 G5C       0.044367
     30 H4           0.6460    41.7370     6.4830 h1         1 G5C       0.050700
     31 H5          -0.3620    41.5410     7.9350 h1         1 G5C       0.050700
     32 H6          -0.8390    41.9330     4.2250 hc         1 G5C       0.077700
     33 H7          -2.6240    42.0690     4.3660 hc         1 G5C       0.077700
     34 H8          -0.4850    39.6600     8.9480 ha         1 G5C       0.117000
     35 H9          -0.0440    37.4990     9.9890 ha         1 G5C       0.136000
     36 H10          2.3150    30.6260    13.3920 h4         1 G5C       0.227000
     37 H11          3.0230    37.8520    13.5210 h1         1 G5C       0.043367
     38 H12          3.1050    37.6910    11.7490 h1         1 G5C       0.043367
     39 H13          1.5240    37.8360    12.5590 h1         1 G5C       0.043367
     40 H14         -0.4400    37.8390     5.0480 ha         1 G5C       0.135000
     41 H15         -1.0620    43.4860     6.1280 hc         1 G5C       0.058700
     42 H16         -2.3330    42.4870     6.8520 hc         1 G5C       0.058700
     43 H17          2.8610    35.5290    13.6190 hn         1 G5C       0.508000
     44 H18          0.1830    34.3720     8.0220 hn         1 G5C       0.519000
     45 H19          1.1340    30.7040    11.0690 hn         1 G5C       0.366000
     46 N06          0.3250    35.1260     8.6930 nu         1 G5C      -0.922900
     47 N02          2.4650    35.9420    12.7750 nu         1 G5C      -0.920100
@<TRIPOS>BOND
     1     1    25 1   
     2     1    27 1   
     3     1    28 1   
     4     1    29 1   
     5     2     5 ar  
     6     2    11 1   
     7     2    21 ar  
     8     3    11 1   
     9     3    22 1   
    10     3    30 1   
    11     3    31 1   
    12     4    12 1   
    13     4    22 1   
    14     4    32 1   
    15     4    33 1   
    16     5     6 ar  
    17     5    34 1   
    18     6    19 ar  
    19     6    35 1   
    20     7    13 ar  
    21     7    14 ar  
    22     7    24 1   
    23     8    10 2   
    24     8    14 1   
    25     8    15 1   
    26     9    15 3   
    27    10    24 1   
    28    10    36 1   
    29    11    12 1   
    30    12    26 2   
    31    13    18 ar  
    32    14    17 ar  
    33    16    37 1   
    34    16    38 1   
    35    16    39 1   
    36    16    47 1   
    37    17    23 ar  
    38    17    47 1   
    39    18    23 ar  
    40    18    46 1   
    41    19    20 ar  
    42    19    46 1   
    43    20    21 ar  
    44    20    25 1   
    45    21    40 1   
    46    22    41 1   
    47    22    42 1   
    48    24    45 1   
    49    43    47 1   
    50    44    46 1   
@<TRIPOS>SUBSTRUCTURE
     1 G5C         1 TEMP              0 ****  ****    0 ROOT
