@<TRIPOS>MOLECULE
G5C
   47    50     1     0     0
SMALL
bcc


@<TRIPOS>ATOM
      1 C10          0.0940    35.3720     4.7360 c3         1 G5C       0.126700
      2 C12         -0.6840    38.7640     7.0910 ca         1 G5C       0.087600
      3 C14         -0.1800    41.2210     7.0750 c5         1 G5C       0.102000
      4 C16         -1.3670    41.7810     5.0790 c5         1 G5C      -0.169400
      5 C19         -0.8210    38.5900     8.4620 ca         1 G5C      -0.175000
      6 C20         -0.6510    37.3330     9.0250 ca         1 G5C      -0.083000
      7 C22          1.3840    32.9450    11.1030 ca         1 G5C       0.522800
      8 C24          2.6390    33.0390    12.9900 cc         1 G5C      -0.021900
      9 N26          3.9750    33.8550    15.0200 n1         1 G5C      -0.389800
     10 C27          2.4030    31.7260    12.6660 cd         1 G5C      -0.078100
     11 N13         -0.8460    40.0430     6.5270 n          1 G5C      -0.403000
     12 C17         -1.5230    40.3060     5.3750 c          1 G5C       0.710500
     13 N21          0.6690    33.2570    10.0280 nb         1 G5C      -0.827000
     14 C23          1.9880    33.8350    11.9870 ca         1 G5C      -0.407400
     15 C25          3.3760    33.4760    14.1080 cg         1 G5C       0.231500
     16 C01          2.1190    37.5870    12.1380 c3         1 G5C       0.224100
     17 C03          1.8080    35.2030    11.6750 ca         1 G5C       0.799200
     18 C05          0.5610    34.5700     9.8490 ca         1 G5C       0.972900
     19 C07         -0.3340    36.2310     8.2440 ca         1 G5C       0.128600
     20 C08         -0.2070    36.4100     6.8550 ca         1 G5C       0.118100
     21 C11         -0.3760    37.6660     6.2890 ca         1 G5C      -0.202000
     22 C15         -0.9110    42.3780     6.4030 c5         1 G5C      -0.092400
     23 N04          1.0930    35.5330    10.6040 nb         1 G5C      -0.865000
     24 N28          1.6540    31.6810    11.5360 na         1 G5C      -0.264100
     25 O09          0.0860    35.3020     6.1480 os         1 G5C      -0.329900
     26 O18         -2.1310    39.4940     4.7050 o          1 G5C      -0.610500
     27 H1           0.2700    34.3600     4.3800 h1         1 G5C       0.044367
     28 H2          -0.8620    35.7230     4.3400 h1         1 G5C       0.044367
     29 H3           0.8920    36.0200     4.3640 h1         1 G5C       0.044367
     30 H4           0.8820    41.2030     6.8120 h1         1 G5C       0.050700
     31 H5          -0.2510    41.2520     8.1610 h1         1 G5C       0.050700
     32 H6          -0.6080    41.8910     4.2980 hc         1 G5C       0.077700
     33 H7          -2.2910    42.2060     4.6890 hc         1 G5C       0.077700
     34 H8          -1.0790    39.4210     9.1040 ha         1 G5C       0.135000
     35 H9          -0.7760    37.2110    10.0900 ha         1 G5C       0.154000
     36 H10          2.7270    30.8300    13.1700 h4         1 G5C       0.177000
     37 H11          2.7160    38.1630    12.8390 h1         1 G5C       0.043367
     38 H12          2.4250    37.8500    11.1250 h1         1 G5C       0.043367
     39 H13          1.0720    37.8710    12.2590 h1         1 G5C       0.043367
     40 H14         -0.2510    37.8020     5.2250 ha         1 G5C       0.153000
     41 H15         -0.2750    43.2530     6.2900 hc         1 G5C       0.058700
     42 H16         -1.7760    42.6680     7.0000 hc         1 G5C       0.058700
     43 H17          2.8730    35.9470    13.2250 hn         1 G5C       0.452800
     44 H18         -0.4280    34.1800     8.1550 hn         1 G5C       0.463800
     45 H19          1.3360    30.8350    11.0880 hn         1 G5C       0.315700
     46 N06         -0.1810    34.9440     8.7650 nu         1 G5C      -0.729300
     47 N02          2.3310    36.1860    12.4130 nu         1 G5C      -0.864900
@<TRIPOS>BOND
     1     1    25 1   
     2     1    27 1   
     3     1    28 1   
     4     1    29 1   
     5     2     5 ar  
     6     2    11 1   
     7     2    21 ar  
     8     3    11 1   
     9     3    22 1   
    10     3    30 1   
    11     3    31 1   
    12     4    12 1   
    13     4    22 1   
    14     4    32 1   
    15     4    33 1   
    16     5     6 ar  
    17     5    34 1   
    18     6    19 ar  
    19     6    35 1   
    20     7    13 ar  
    21     7    14 ar  
    22     7    24 1   
    23     8    10 2   
    24     8    14 1   
    25     8    15 1   
    26     9    15 3   
    27    10    24 1   
    28    10    36 1   
    29    11    12 1   
    30    12    26 2   
    31    13    18 ar  
    32    14    17 ar  
    33    16    37 1   
    34    16    38 1   
    35    16    39 1   
    36    16    47 1   
    37    17    23 ar  
    38    17    47 1   
    39    18    23 ar  
    40    18    46 1   
    41    19    20 ar  
    42    19    46 1   
    43    20    21 ar  
    44    20    25 1   
    45    21    40 1   
    46    22    41 1   
    47    22    42 1   
    48    24    45 1   
    49    43    47 1   
    50    44    46 1   
@<TRIPOS>SUBSTRUCTURE
     1 G5C         1 TEMP              0 ****  ****    0 ROOT
