@<TRIPOS>MOLECULE
G5D
   53    56     1     0     0
SMALL
bcc


@<TRIPOS>ATOM
      1 N3           3.0150    -0.8520     1.1610 nh         1 G5D      -0.793300
      2 C4           0.3860    -3.0320     0.0050 ca         1 G5D       0.498200
      3 N2          -0.6660    -2.2080     0.0300 nb         1 G5D      -0.784000
      4 C7           3.7830     1.2540     0.2610 c5         1 G5D       0.075000
      5 C6           5.2580    -0.3860     1.1780 c5         1 G5D       0.091700
      6 C9          -2.7610    -0.1350     0.2380 ca         1 G5D       0.206600
      7 C13         -4.7840    -1.2350    -0.4710 ca         1 G5D      -0.059000
      8 C20         -9.0260     1.1770    -0.9890 c3         1 G5D       0.103000
      9 C21         -9.4710     2.6180    -0.8320 c3         1 G5D      -0.110100
     10 C8           3.2810     0.5390     1.5200 c5         1 G5D       0.225500
     11 C16          4.5780     0.3820     2.3080 c5         1 G5D      -0.111400
     12 C19          6.3960     1.6880    -3.1320 c1         1 G5D       0.219700
     13 C1          -0.4020    -0.9750     0.4340 ca         1 G5D       0.946900
     14 N1           0.7840    -0.4930     0.7990 nb         1 G5D      -0.865000
     15 C2           1.8220    -1.3250     0.7720 ca         1 G5D       0.759200
     16 C3           1.6570    -2.6680     0.3610 ca         1 G5D      -0.474600
     17 C5           4.2870    -1.5520     0.9800 c5         1 G5D       0.203800
     18 N4           5.0530     0.5430     0.0620 n          1 G5D      -0.492800
     19 C10         -3.5210     1.0180     0.4830 ca         1 G5D      -0.189000
     20 C11         -4.8790     1.0400     0.2410 ca         1 G5D      -0.059000
     21 C12         -5.5390    -0.0870    -0.2480 ca         1 G5D      -0.187600
     22 C14         -3.4190    -1.2710    -0.2470 ca         1 G5D      -0.189000
     23 C15         -7.0060    -0.1290    -0.5070 c          1 G5D       0.683700
     24 O1          -7.6210    -1.1900    -0.5190 o          1 G5D      -0.608100
     25 N6          -7.6070     1.0530    -0.7210 ns         1 G5D      -0.572900
     26 C17          5.8520     0.6030    -1.0050 c          1 G5D       0.686100
     27 O2           6.8570    -0.0730    -1.1500 o          1 G5D      -0.578100
     28 N7           7.1480     1.7630    -3.9980 n1         1 G5D      -0.345800
     29 H2           0.1850    -4.0470    -0.3210 h4         1 G5D       0.023100
     30 H6           3.1000     1.1310    -0.5810 h1         1 G5D       0.061200
     31 H7           3.9370     2.3210     0.4380 h1         1 G5D       0.061200
     32 H5           6.2980    -0.6670     1.3050 h1         1 G5D       0.115700
     33 H12         -5.2690    -2.1290    -0.8410 ha         1 G5D       0.140500
     34 H19         -9.5720     0.5390    -0.2940 h1         1 G5D       0.051700
     35 H20         -9.2580     0.8190    -1.9970 h1         1 G5D       0.051700
     36 H23        -10.5370     2.7050    -1.0360 hc         1 G5D       0.040700
     37 H21         -9.2900     2.9790     0.1810 hc         1 G5D       0.040700
     38 H22         -8.9480     3.2770    -1.5280 hc         1 G5D       0.040700
     39 H8           2.4390     1.0170     2.0080 h1         1 G5D       0.114700
     40 H9          -1.0870     0.8520     0.8280 hn         1 G5D       0.449800
     41 H18          5.2890     2.6100    -1.6330 hc         1 G5D       0.087700
     42 H17          4.4540     1.3320    -2.4930 hc         1 G5D       0.087700
     43 H15          4.4620    -0.2030     3.2200 hc         1 G5D       0.077200
     44 H16          5.0610     1.3310     2.5390 hc         1 G5D       0.077200
     45 H1           2.4710    -3.3760     0.3360 ha         1 G5D       0.154000
     46 H4           4.4360    -2.3370     1.7270 h1         1 G5D       0.066200
     47 H3           4.3730    -1.9950    -0.0130 h1         1 G5D       0.066200
     48 H10         -3.0390     1.9050     0.8760 ha         1 G5D       0.151000
     49 H11         -5.4200     1.9500     0.4710 ha         1 G5D       0.140500
     50 H13         -2.8660    -2.1740    -0.4450 ha         1 G5D       0.151000
     51 H14         -7.0370     1.8670    -0.8840 hn         1 G5D       0.310500
     52 N5          -1.4080    -0.0480     0.5040 nu         1 G5D      -0.738300
     53 C18          5.4190     1.6130    -2.0620 c3         1 G5D      -0.101300
@<TRIPOS>BOND
     1     1    10 1   
     2     1    15 1   
     3     1    17 1   
     4     2     3 ar  
     5     2    16 ar  
     6     2    29 1   
     7     3    13 ar  
     8     4    10 1   
     9     4    18 1   
    10     4    30 1   
    11     4    31 1   
    12     5    11 1   
    13     5    17 1   
    14     5    18 1   
    15     5    32 1   
    16     6    19 ar  
    17     6    22 ar  
    18     6    52 1   
    19     7    21 ar  
    20     7    22 ar  
    21     7    33 1   
    22     8     9 1   
    23     8    25 1   
    24     8    34 1   
    25     8    35 1   
    26     9    36 1   
    27     9    37 1   
    28     9    38 1   
    29    10    11 1   
    30    10    39 1   
    31    11    43 1   
    32    11    44 1   
    33    12    28 3   
    34    12    53 1   
    35    13    14 ar  
    36    13    52 1   
    37    14    15 ar  
    38    15    16 ar  
    39    16    45 1   
    40    17    46 1   
    41    17    47 1   
    42    18    26 1   
    43    19    20 ar  
    44    19    48 1   
    45    20    21 ar  
    46    20    49 1   
    47    21    23 1   
    48    22    50 1   
    49    23    24 2   
    50    23    25 1   
    51    25    51 1   
    52    26    27 2   
    53    26    53 1   
    54    40    52 1   
    55    41    53 1   
    56    42    53 1   
@<TRIPOS>SUBSTRUCTURE
     1 G5D         1 TEMP              0 ****  ****    0 ROOT
