@<TRIPOS>MOLECULE
G5D
   53    56     1     0     0
SMALL
No Charge or Current Charge


@<TRIPOS>ATOM
      1 N3           3.0720    -0.9650     1.0740 nh         1 G5D      -0.793300
      2 C4           0.3130    -3.1430    -0.1030 ca         1 G5D       0.169900
      3 N2          -0.7140    -2.2790    -0.0340 nb         1 G5D      -0.258000
      4 C7           3.8540     1.1660     0.1680 c5         1 G5D       0.075000
      5 C6           5.3910    -0.5140     1.0380 c5         1 G5D       0.091700
      6 C9          -2.8250    -0.1290     0.3050 ca         1 G5D       0.345000
      7 C13         -4.9860    -1.2620     0.3820 ca         1 G5D      -0.041000
      8 C20         -9.1840     1.2530    -0.7970 c3         1 G5D       0.103000
      9 C21         -9.5220     2.6860    -1.2350 c3         1 G5D      -0.110100
     10 C8           3.3670     0.4470     1.4760 c5         1 G5D       0.225500
     11 C16          4.7080     0.2290     2.2110 c5         1 G5D      -0.111400
     12 C19          6.4860     2.7260    -2.1190 c1         1 G5D       0.308900
     13 C1          -0.4260    -1.0420     0.4090 ca         1 G5D       0.420900
     14 N1           0.7770    -0.5770     0.7660 nb         1 G5D      -0.339000
     15 C2           1.8040    -1.4420     0.6930 ca         1 G5D       0.430900
     16 C3           1.6110    -2.7610     0.2600 ca         1 G5D      -0.326000
     17 C5           4.3610    -1.6770     0.8020 c5         1 G5D       0.203800
     18 N4           5.1560     0.4740    -0.0500 n          1 G5D      -0.425800
     19 C10         -3.4790     1.0510    -0.0780 ca         1 G5D      -0.171000
     20 C11         -4.8750     1.0810    -0.2470 ca         1 G5D      -0.041000
     21 C12         -5.6500    -0.0820    -0.0210 ca         1 G5D      -0.187600
     22 C14         -3.5900    -1.2820     0.5460 ca         1 G5D      -0.171000
     23 C15         -7.1550    -0.0980    -0.1900 c          1 G5D       0.616700
     24 O1          -7.8240    -1.1030     0.0120 o          1 G5D      -0.608100
     25 N6          -7.7480     1.0810    -0.5850 ns         1 G5D      -0.505900
     26 C17          5.9110     0.5110    -1.2400 c          1 G5D       0.619100
     27 O2           6.8420    -0.2680    -1.3980 o          1 G5D      -0.578100
     28 N7           7.1690     3.6610    -1.9980 n1         1 G5D      -0.435000
     29 H2           0.0910    -4.1510    -0.4520 h4         1 G5D       0.023100
     30 H6           3.1490     1.0200    -0.6610 h1         1 G5D       0.061200
     31 H7           3.9990     2.2420     0.3300 h1         1 G5D       0.061200
     32 H5           6.4350    -0.8190     1.1920 h1         1 G5D       0.115700
     33 H12         -5.5510    -2.1720     0.5750 ha         1 G5D       0.122500
     34 H19         -9.7130     1.0200     0.1370 h1         1 G5D       0.051700
     35 H20         -9.5180     0.5450    -1.5690 h1         1 G5D       0.051700
     36 H23        -10.6030     2.7910    -1.3880 hc         1 G5D       0.040700
     37 H21         -9.2120     3.4080    -0.4710 hc         1 G5D       0.040700
     38 H22         -9.0160     2.9330    -2.1760 hc         1 G5D       0.040700
     39 H8           2.5850     0.9640     2.0520 h1         1 G5D       0.114700
     40 H9          -1.0650     0.8410     0.5970 hn         1 G5D       0.505000
     41 H18          4.5780     1.9440    -2.2110 hc         1 G5D       0.087700
     42 H17          5.7830     1.1630    -3.2860 hc         1 G5D       0.087700
     43 H15          4.6120    -0.3800     3.1170 hc         1 G5D       0.077200
     44 H16          5.2090     1.1670     2.4790 hc         1 G5D       0.077200
     45 H1           2.4290    -3.4710     0.2050 ha         1 G5D       0.136000
     46 H4           4.5200    -2.5040     1.5080 h1         1 G5D       0.066200
     47 H3           4.4240    -2.0700    -0.2220 h1         1 G5D       0.066200
     48 H10         -2.9040     1.9540    -0.2580 ha         1 G5D       0.133000
     49 H11         -5.3350     2.0170    -0.5530 ha         1 G5D       0.122500
     50 H13         -3.1160    -2.1980     0.8810 ha         1 G5D       0.133000
     51 H14         -7.1400     1.8750    -0.7360 hn         1 G5D       0.310500
     52 N5          -1.4380    -0.0980     0.4710 nu         1 G5D      -0.931900
     53 C18          5.6030     1.5770    -2.2890 c3         1 G5D      -0.101300
@<TRIPOS>BOND
     1     1    10 1   
     2     1    15 1   
     3     1    17 1   
     4     2     3 ar  
     5     2    16 ar  
     6     2    29 1   
     7     3    13 ar  
     8     4    10 1   
     9     4    18 1   
    10     4    30 1   
    11     4    31 1   
    12     5    11 1   
    13     5    17 1   
    14     5    18 1   
    15     5    32 1   
    16     6    19 ar  
    17     6    22 ar  
    18     6    52 1   
    19     7    21 ar  
    20     7    22 ar  
    21     7    33 1   
    22     8     9 1   
    23     8    25 1   
    24     8    34 1   
    25     8    35 1   
    26     9    36 1   
    27     9    37 1   
    28     9    38 1   
    29    10    11 1   
    30    10    39 1   
    31    11    43 1   
    32    11    44 1   
    33    12    28 3   
    34    12    53 1   
    35    13    14 ar  
    36    13    52 1   
    37    14    15 ar  
    38    15    16 ar  
    39    16    45 1   
    40    17    46 1   
    41    17    47 1   
    42    18    26 1   
    43    19    20 ar  
    44    19    48 1   
    45    20    21 ar  
    46    20    49 1   
    47    21    23 1   
    48    22    50 1   
    49    23    24 2   
    50    23    25 1   
    51    25    51 1   
    52    26    27 2   
    53    26    53 1   
    54    40    52 1   
    55    41    53 1   
    56    42    53 1   
@<TRIPOS>SUBSTRUCTURE
     1 G5D         1 TEMP              0 ****  ****    0 ROOT
