@<TRIPOS>MOLECULE
G5E
   31    33     1     0     0
SMALL
No Charge or Current Charge


@<TRIPOS>ATOM
      1 C1          -3.8500    -0.6160     0.0720 ca         1 G5E       0.207100
      2 C2          -3.6000     0.5320     0.8280 ca         1 G5E      -0.261000
      3 C3          -2.3560     1.1750     0.7440 ca         1 G5E       0.221100
      4 C7          -0.0430     1.3300    -0.2290 cc         1 G5E       0.439500
      5 C10          2.1710     1.5670    -0.5620 cs         1 G5E       0.385400
      6 C12          1.4000    -0.7080     0.1180 ca         1 G5E      -0.004400
      7 C13          2.1550    -1.6060    -0.6740 ca         1 G5E       0.205000
      8 C14          2.2930    -2.9530    -0.2990 ca         1 G5E      -0.150000
      9 C15          1.6550    -3.4340     0.8550 ca         1 G5E      -0.069000
     10 C16          0.8580    -2.5680     1.6190 ca         1 G5E      -0.124000
     11 C4          -1.3420     0.6610    -0.0920 ca         1 G5E      -0.210900
     12 C5          -1.6130    -0.4910    -0.8620 ca         1 G5E       0.004000
     13 C6          -2.8610    -1.1290    -0.7740 ca         1 G5E      -0.250000
     14 N8           0.1290     2.6210    -0.4550 nd         1 G5E      -0.461300
     15 N9           1.4770     2.7410    -0.6470 ns         1 G5E      -0.277400
     16 N11          1.1710     0.6510    -0.3160 n          1 G5E      -0.169500
     17 C17          0.7150    -1.2200     1.2440 ca         1 G5E      -0.061000
     18 S18          3.8400     1.4140    -0.5390 s          1 G5E      -0.590400
     19 F19          2.7060    -1.2020    -1.8410 f          1 G5E      -0.157000
     20 O20         -2.1350     2.2720     1.5210 oh         1 G5E      -0.513100
     21 O21         -5.0590    -1.2290     0.1610 oh         1 G5E      -0.524100
     22 H1          -4.3780     0.9160     1.4810 ha         1 G5E       0.136000
     23 H2           2.8820    -3.6260    -0.9170 ha         1 G5E       0.139000
     24 H3           1.7590    -4.4780     1.1430 ha         1 G5E       0.122000
     25 H4           0.3440    -2.9410     2.5030 ha         1 G5E       0.125000
     26 H5          -0.8590    -0.8910    -1.5380 ha         1 G5E       0.128000
     27 H6          -3.0500    -2.0180    -1.3720 ha         1 G5E       0.125000
     28 H7           1.9560     3.6330    -0.8040 hn         1 G5E       0.506000
     29 H8           0.0930    -0.5680     1.8520 ha         1 G5E       0.132000
     30 H9          -2.9580     2.4680     2.0140 ho         1 G5E       0.475000
     31 H10         -5.0500    -2.0070    -0.4350 ho         1 G5E       0.474000
@<TRIPOS>BOND
     1     1     2 ar  
     2     1    13 ar  
     3     1    21 1   
     4     2     3 ar  
     5     2    22 1   
     6     3    11 ar  
     7     3    20 1   
     8     4    11 1   
     9     4    14 2   
    10     4    16 1   
    11     5    15 1   
    12     5    16 1   
    13     5    18 2   
    14     6     7 ar  
    15     6    16 1   
    16     6    17 ar  
    17     7     8 ar  
    18     7    19 1   
    19     8     9 ar  
    20     8    23 1   
    21     9    10 ar  
    22     9    24 1   
    23    10    17 ar  
    24    10    25 1   
    25    11    12 ar  
    26    12    13 ar  
    27    12    26 1   
    28    13    27 1   
    29    14    15 1   
    30    15    28 1   
    31    17    29 1   
    32    20    30 1   
    33    21    31 1   
@<TRIPOS>SUBSTRUCTURE
     1 G5E         1 TEMP              0 ****  ****    0 ROOT
