@<TRIPOS>MOLECULE
G5E
   31    33     1     0     0
SMALL
bcc


@<TRIPOS>ATOM
      1 C1          -3.8300    -0.6510    -0.0480 ca         1 G5E       0.207100
      2 C2          -3.5690     0.4610     0.7460 ca         1 G5E      -0.279000
      3 C3          -2.3430     1.1080     0.6600 ca         1 G5E       0.221100
      4 C7          -0.0680     1.3070    -0.3270 cc         1 G5E       0.439500
      5 C10          2.1460     1.5540    -0.3280 cs         1 G5E       0.519400
      6 C12          1.3150    -0.7000     0.2070 ca         1 G5E      -0.004400
      7 C13          1.8270    -1.6030    -0.7100 ca         1 G5E       0.169900
      8 C14          2.0180    -2.9300    -0.3850 ca         1 G5E      -0.168000
      9 C15          1.6760    -3.3600     0.8900 ca         1 G5E      -0.087000
     10 C16          1.1520    -2.4710     1.8190 ca         1 G5E      -0.142000
     11 C4          -1.3650     0.6460    -0.2300 ca         1 G5E      -0.210900
     12 C5          -1.6480    -0.4720    -1.0120 ca         1 G5E      -0.014000
     13 C6          -2.8620    -1.1230    -0.9350 ca         1 G5E      -0.268000
     14 N8           0.1430     2.5540    -0.5860 nd         1 G5E      -0.461300
     15 N9           1.4840     2.6880    -0.5810 ns         1 G5E      -0.230900
     16 N11          1.1330     0.6490    -0.1620 n          1 G5E      -0.236500
     17 C17          0.9770    -1.1380     1.4790 ca         1 G5E      -0.079000
     18 S18          3.7860     1.3000    -0.2150 s          1 G5E      -0.590400
     19 F19          2.1190    -1.1710    -1.9390 f          1 G5E      -0.121900
     20 O20         -2.0450     2.1690     1.4210 oh         1 G5E      -0.474100
     21 O21         -5.0310    -1.2310     0.0830 oh         1 G5E      -0.485100
     22 H1          -4.3270     0.8180     1.4350 ha         1 G5E       0.154000
     23 H2           2.4210    -3.6150    -1.1200 ha         1 G5E       0.157000
     24 H3           1.8180    -4.3990     1.1530 ha         1 G5E       0.140000
     25 H4           0.8830    -2.8110     2.8090 ha         1 G5E       0.143000
     26 H5          -0.9070    -0.8340    -1.7130 ha         1 G5E       0.146000
     27 H6          -3.0540    -1.9880    -1.5590 ha         1 G5E       0.143000
     28 H7           1.9050     3.5860    -0.7600 hn         1 G5E       0.392500
     29 H8           0.5780    -0.4320     2.1950 ha         1 G5E       0.150000
     30 H9          -2.7740     2.3720     2.0200 ho         1 G5E       0.436000
     31 H10         -5.1080    -1.9870    -0.5100 ho         1 G5E       0.435000
@<TRIPOS>BOND
     1     1     2 ar  
     2     1    13 ar  
     3     1    21 1   
     4     2     3 ar  
     5     2    22 1   
     6     3    11 ar  
     7     3    20 1   
     8     4    11 1   
     9     4    14 2   
    10     4    16 1   
    11     5    15 1   
    12     5    16 1   
    13     5    18 2   
    14     6     7 ar  
    15     6    16 1   
    16     6    17 ar  
    17     7     8 ar  
    18     7    19 1   
    19     8     9 ar  
    20     8    23 1   
    21     9    10 ar  
    22     9    24 1   
    23    10    17 ar  
    24    10    25 1   
    25    11    12 ar  
    26    12    13 ar  
    27    12    26 1   
    28    13    27 1   
    29    14    15 1   
    30    15    28 1   
    31    17    29 1   
    32    20    30 1   
    33    21    31 1   
@<TRIPOS>SUBSTRUCTURE
     1 G5E         1 TEMP              0 ****  ****    0 ROOT
