@<TRIPOS>MOLECULE
G5G
   23    22     1     0     0
SMALL
No Charge or Current Charge


@<TRIPOS>ATOM
      1 CG         154.1040   149.3930   126.3650 c3         1 G5G       0.190000
      2 CB         152.6190   148.9000   126.4430 c3         1 G5G      -0.047400
      3 CA         152.1300   147.8670   125.3750 c3         1 G5G       0.021500
      4 N          150.6280   147.9550   125.2400 n8         1 G5G      -0.980200
      5 C          152.6920   146.3980   125.6060 c          1 G5G       0.715000
      6 O          152.9900   145.7370   124.6190 o          1 G5G      -0.732000
      7 O1         154.3180   150.0390   125.1070 oh         1 G5G      -0.671000
      8 CD1        155.1640   148.2470   126.4780 c3         1 G5G       0.115600
      9 CD2        154.3380   150.4600   127.4680 c3         1 G5G      -0.110100
     10 O2         156.5040   148.7590   126.2900 oh         1 G5G      -0.702000
     11 O3         152.7980   145.9680   126.7480 o          1 G5G      -0.732000
     12 H1         151.9820   149.7910   126.3690 hc         1 G5G       0.046200
     13 H2         152.4310   148.4940   127.4450 hc         1 G5G       0.046200
     14 H3         152.5240   148.1940   124.4040 h1         1 G5G       0.016700
     15 H5         150.3690   148.9060   124.9550 hn         1 G5G       0.366000
     16 H4         150.3280   147.3690   124.4520 hn         1 G5G       0.366000
     17 H8         155.2940   149.9930   124.9850 ho         1 G5G       0.436000
     18 H10        155.0660   147.7660   127.4610 h1         1 G5G       0.064700
     19 H9         154.9620   147.4860   125.7160 h1         1 G5G       0.064700
     20 H11        154.2330   150.0150   128.4650 hc         1 G5G       0.029700
     21 H12        155.3400   150.9000   127.3990 hc         1 G5G       0.029700
     22 H13        153.6110   151.2770   127.3850 hc         1 G5G       0.029700
     23 H14        157.1260   148.0110   126.4390 ho         1 G5G       0.437000
@<TRIPOS>BOND
     1     1     2 1   
     2     1     7 1   
     3     1     8 1   
     4     1     9 1   
     5     2     3 1   
     6     2    12 1   
     7     2    13 1   
     8     3     4 1   
     9     3     5 1   
    10     3    14 1   
    11     4    15 1   
    12     4    16 1   
    13     5     6 1   
    14     5    11 1   
    15     7    17 1   
    16     8    10 1   
    17     8    18 1   
    18     8    19 1   
    19     9    20 1   
    20     9    21 1   
    21     9    22 1   
    22    10    23 1   
@<TRIPOS>SUBSTRUCTURE
     1 G5G         1 TEMP              0 ****  ****    0 ROOT
