@<TRIPOS>MOLECULE
G5G
   23    22     1     0     0
SMALL
abcg2


@<TRIPOS>ATOM
      1 CG         154.1130   149.4200   126.3450 c3         1 G5G       0.190000
      2 CB         152.6610   148.9380   126.3870 c3         1 G5G      -0.047400
      3 CA         152.2510   147.8880   125.3590 c3         1 G5G       0.021500
      4 N          150.7880   147.9210   125.2320 n8         1 G5G      -0.980200
      5 C          152.6200   146.4320   125.7570 c          1 G5G       0.715000
      6 O          152.9320   145.6720   124.8160 o          1 G5G      -0.732000
      7 O1         154.2860   150.1170   125.1190 oh         1 G5G      -0.671000
      8 CD1        155.0920   148.2500   126.4060 c3         1 G5G       0.115600
      9 CD2        154.3520   150.3730   127.5190 c3         1 G5G      -0.110100
     10 O2         156.4080   148.7640   126.3540 oh         1 G5G      -0.702000
     11 O3         152.5320   146.1250   126.9620 o          1 G5G      -0.732000
     12 H1         152.0370   149.8290   126.2580 hc         1 G5G       0.046200
     13 H2         152.4400   148.5550   127.3860 hc         1 G5G       0.046200
     14 H3         152.7420   148.1130   124.4020 h1         1 G5G       0.016700
     15 H5         150.5110   148.8220   124.8590 hn         1 G5G       0.366000
     16 H4         150.5000   147.2460   124.5340 hn         1 G5G       0.366000
     17 H8         155.2260   150.3050   125.0250 ho         1 G5G       0.436000
     18 H10        154.9180   147.6760   127.3250 h1         1 G5G       0.064700
     19 H9         154.9110   147.5750   125.5610 h1         1 G5G       0.064700
     20 H11        154.2420   149.8570   128.4740 hc         1 G5G       0.029700
     21 H12        155.3510   150.8110   127.4910 hc         1 G5G       0.029700
     22 H13        153.6300   151.1910   127.4980 hc         1 G5G       0.029700
     23 H14        157.0080   148.0430   126.1450 ho         1 G5G       0.437000
@<TRIPOS>BOND
     1     1     2 1   
     2     1     7 1   
     3     1     8 1   
     4     1     9 1   
     5     2     3 1   
     6     2    12 1   
     7     2    13 1   
     8     3     4 1   
     9     3     5 1   
    10     3    14 1   
    11     4    15 1   
    12     4    16 1   
    13     5     6 1   
    14     5    11 1   
    15     7    17 1   
    16     8    10 1   
    17     8    18 1   
    18     8    19 1   
    19     9    20 1   
    20     9    21 1   
    21     9    22 1   
    22    10    23 1   
@<TRIPOS>SUBSTRUCTURE
     1 G5G         1 TEMP              0 ****  ****    0 ROOT
