@<TRIPOS>MOLECULE
G5H
   46    47     1     0     0
SMALL
abcg2


@<TRIPOS>ATOM
      1 C5          -0.0210     2.9700     1.0460 c3         1 G5H       0.211600
      2 O2          -3.9580     1.6190    -0.5920 oh         1 G5H      -0.700000
      3 C4          -1.1800     2.3790     0.2880 c5         1 G5H       0.152300
      4 O4          -0.8630     1.0690    -0.1430 os         1 G5H      -0.451000
      5 C3          -2.4080     2.1930     1.1770 c5         1 G5H       0.085300
      6 O3          -3.1230     3.3880     1.2870 oh         1 G5H      -0.708000
      7 C2          -3.1660     1.0830     0.4310 c5         1 G5H       0.098300
      8 C1          -2.0310     0.2840    -0.2320 c5         1 G5H       0.329700
      9 C7          -0.9710    -2.2140     2.2800 cc         1 G5H      -0.317200
     10 C6          -1.2580    -1.0640     1.6580 cd         1 G5H      -0.037400
     11 C8          -1.2060    -3.4690     1.6040 c          1 G5H       0.622200
     12 O7          -1.0350    -4.5750     2.0760 o          1 G5H      -0.510000
     13 C9          -1.9970    -2.1590    -0.3410 c          1 G5H       0.639000
     14 O6          -2.4340    -2.1520    -1.4740 o          1 G5H      -0.569000
     15 N            0.9290    -1.5190    -2.2180 n8         1 G5H      -0.959200
     16 CA           1.5690    -1.0300    -1.0240 c3         1 G5H       0.113500
     17 C            1.8720     0.4610    -1.0750 c          1 G5H       0.593100
     18 O            1.7840     1.1510    -2.0600 o          1 G5H      -0.570100
     19 CB           2.8290    -1.8450    -0.7420 c3         1 G5H      -0.206400
     20 CG           2.4820    -3.3020    -0.3680 c          1 G5H       0.737000
     21 OD1          1.5420    -3.4540     0.4350 o          1 G5H      -0.732500
     22 OD2          3.1930    -4.1950    -0.8690 o          1 G5H      -0.732500
     23 N1          -1.7590    -1.0040     0.3840 n          1 G5H      -0.328000
     24 N3          -1.7200    -3.3170     0.3260 ns         1 G5H      -0.441500
     25 N3S          2.2660     0.9900     0.1460 ns         1 G5H      -0.613300
     26 O1S          2.8340     2.7080     1.8180 o          1 G5H      -0.555500
     27 O2S          3.3440     3.1770    -0.5900 o          1 G5H      -0.555500
     28 O5           1.0730     3.2450     0.1450 os         1 G5H      -0.564700
     29 S            2.4990     2.6060     0.4190 s6         1 G5H       1.438500
     30 H1          -0.3190     3.9230     1.4830 h1         1 G5H       0.061200
     31 H2           0.2850     2.3090     1.8600 h1         1 G5H       0.061200
     32 H3          -4.3280     2.4530    -0.2740 ho         1 G5H       0.519000
     33 H4          -1.4360     3.0200    -0.5650 h1         1 G5H       0.098700
     34 H5          -2.0970     1.8220     2.1630 h1         1 G5H       0.048700
     35 H6          -3.6490     3.3680     2.0930 ho         1 G5H       0.514000
     36 H7          -3.7550     0.4550     1.1110 h1         1 G5H       0.065700
     37 H8          -2.2870     0.0850    -1.2730 h2         1 G5H       0.133700
     38 H9          -0.5710    -2.2120     3.2820 ha         1 G5H       0.213000
     39 H10         -1.0910    -0.1170     2.1490 h4         1 G5H       0.180000
     40 H14          0.8950    -1.1900    -0.1780 h1         1 G5H       0.091700
     41 H15          3.4960    -1.8040    -1.6070 hc         1 G5H       0.027200
     42 H16          3.3860    -1.4130     0.0960 hc         1 G5H       0.027200
     43 H18         -1.8900    -4.1660    -0.1990 hn         1 G5H       0.347500
     44 H19          2.3180     0.3960     0.9660 hn         1 G5H       0.355500
     45 H11          0.0660    -1.0240    -2.4000 hn         1 G5H       0.394000
     46 H12          1.5220    -1.3580    -3.0240 hn         1 G5H       0.394000
@<TRIPOS>BOND
     1     1     3 1   
     2     1    28 1   
     3     1    30 1   
     4     1    31 1   
     5     2     7 1   
     6     2    32 1   
     7     3     4 1   
     8     3     5 1   
     9     3    33 1   
    10     4     8 1   
    11     5     6 1   
    12     5     7 1   
    13     5    34 1   
    14     6    35 1   
    15     7     8 1   
    16     7    36 1   
    17     8    23 1   
    18     8    37 1   
    19     9    10 2   
    20     9    11 1   
    21     9    38 1   
    22    10    23 1   
    23    10    39 1   
    24    11    12 2   
    25    11    24 1   
    26    13    14 2   
    27    13    23 1   
    28    13    24 1   
    29    15    16 1   
    30    15    45 1   
    31    15    46 1   
    32    16    17 1   
    33    16    19 1   
    34    16    40 1   
    35    17    18 2   
    36    17    25 1   
    37    19    20 1   
    38    19    41 1   
    39    19    42 1   
    40    20    21 1   
    41    20    22 1   
    42    24    43 1   
    43    25    29 1   
    44    25    44 1   
    45    26    29 2   
    46    27    29 2   
    47    28    29 1   
@<TRIPOS>SUBSTRUCTURE
     1 G5H         1 TEMP              0 ****  ****    0 ROOT
