@<TRIPOS>MOLECULE
G5H
   46    47     1     0     0
SMALL
No Charge or Current Charge


@<TRIPOS>ATOM
      1 C5           0.1400     2.4990     0.7530 c3         1 G5H       0.211600
      2 O2          -4.3080     2.0500     0.7160 oh         1 G5H      -0.700000
      3 C4          -1.3270     2.0950     0.4730 c5         1 G5H       0.152300
      4 O4          -1.3800     0.8970    -0.3340 os         1 G5H      -0.451000
      5 C3          -2.1390     1.6790     1.7350 c5         1 G5H       0.085300
      6 O3          -2.5320     2.7910     2.5620 oh         1 G5H      -0.708000
      7 C2          -3.3740     1.0150     1.0570 c5         1 G5H       0.098300
      8 C1          -2.7100     0.3380    -0.2070 c5         1 G5H       0.329700
      9 C7          -1.5610    -3.0390     1.0010 cc         1 G5H      -0.317200
     10 C6          -1.5890    -1.6800     0.7920 cd         1 G5H      -0.037400
     11 C8          -2.5970    -3.9250     0.4730 c          1 G5H       0.622200
     12 O7          -2.6150    -5.1330     0.6330 o          1 G5H      -0.510000
     13 C9          -3.6590    -1.9410    -0.4820 c          1 G5H       0.639000
     14 O6          -4.5900    -1.5010    -1.1360 o          1 G5H      -0.569000
     15 N            3.2540    -1.9200    -2.2870 n8         1 G5H      -0.959200
     16 CA           2.6510    -1.1300    -1.1600 c3         1 G5H       0.113500
     17 C            2.4460     0.4070    -1.4990 c          1 G5H       0.593100
     18 O            2.0910     0.7610    -2.6150 o          1 G5H      -0.570100
     19 CB           3.4690    -1.4400     0.1300 c3         1 G5H      -0.206400
     20 CG           2.6190    -1.1950     1.3830 c          1 G5H       0.737000
     21 OD1          2.6690    -0.0860     1.8890 o          1 G5H      -0.732500
     22 OD2          1.8880    -2.0900     1.7730 o          1 G5H      -0.732500
     23 N1          -2.6400    -1.1270     0.0550 n          1 G5H      -0.328000
     24 N3          -3.5600    -3.2730    -0.2300 ns         1 G5H      -0.441500
     25 N3S          2.7270     1.3030    -0.5170 ns         1 G5H      -0.613300
     26 O1S          2.8540     3.4540     0.7960 o          1 G5H      -0.555500
     27 O2S          2.8490     3.5320    -1.7580 o          1 G5H      -0.555500
     28 O5           0.7650     2.8420    -0.4990 os         1 G5H      -0.564700
     29 S            2.4030     2.9290    -0.4960 s6         1 G5H       1.438500
     30 H1           0.1580     3.3490     1.4470 h1         1 G5H       0.061200
     31 H2           0.6400     1.6490     1.2380 h1         1 G5H       0.061200
     32 H3          -4.0670     2.7790     1.3440 ho         1 G5H       0.519000
     33 H4          -1.8210     2.9150    -0.0660 h1         1 G5H       0.098700
     34 H5          -1.5750     0.9410     2.3240 h1         1 G5H       0.048700
     35 H6          -2.4540     2.5060     3.5050 ho         1 G5H       0.514000
     36 H7          -3.8460     0.2760     1.7200 h1         1 G5H       0.065700
     37 H8          -3.3010     0.5120    -1.1160 h2         1 G5H       0.133700
     38 H9          -0.7670    -3.5200     1.5620 ha         1 G5H       0.213000
     39 H10         -0.8400    -0.9820     1.1540 h4         1 G5H       0.180000
     40 H14          1.6340    -1.5190    -1.0000 h1         1 G5H       0.091700
     41 H15          3.7160    -2.5090     0.0860 hc         1 G5H       0.027200
     42 H16          4.3540    -0.7920     0.1170 hc         1 G5H       0.027200
     43 H18         -4.2910    -3.8480    -0.6130 hn         1 G5H       0.347500
     44 H19          2.9270     0.9690     0.4160 hn         1 G5H       0.355500
     45 H11          2.7290    -1.7150    -3.1470 hn         1 G5H       0.394000
     46 H12          4.1900    -1.5520    -2.4930 hn         1 G5H       0.394000
@<TRIPOS>BOND
     1     1     3 1   
     2     1    28 1   
     3     1    30 1   
     4     1    31 1   
     5     2     7 1   
     6     2    32 1   
     7     3     4 1   
     8     3     5 1   
     9     3    33 1   
    10     4     8 1   
    11     5     6 1   
    12     5     7 1   
    13     5    34 1   
    14     6    35 1   
    15     7     8 1   
    16     7    36 1   
    17     8    23 1   
    18     8    37 1   
    19     9    10 2   
    20     9    11 1   
    21     9    38 1   
    22    10    23 1   
    23    10    39 1   
    24    11    12 2   
    25    11    24 1   
    26    13    14 2   
    27    13    23 1   
    28    13    24 1   
    29    15    16 1   
    30    15    45 1   
    31    15    46 1   
    32    16    17 1   
    33    16    19 1   
    34    16    40 1   
    35    17    18 2   
    36    17    25 1   
    37    19    20 1   
    38    19    41 1   
    39    19    42 1   
    40    20    21 1   
    41    20    22 1   
    42    24    43 1   
    43    25    29 1   
    44    25    44 1   
    45    26    29 2   
    46    27    29 2   
    47    28    29 1   
@<TRIPOS>SUBSTRUCTURE
     1 G5H         1 TEMP              0 ****  ****    0 ROOT
