@<TRIPOS>MOLECULE
G5J
   48    50     1     0     0
SMALL
abcg2


@<TRIPOS>ATOM
      1 C2          -5.4060    -2.4150    -1.2020 cc         1 G5J       0.885100
      2 N2          -6.6920    -2.3830    -1.5730 nv         1 G5J      -1.086200
      3 C4          -3.5060    -1.2310    -0.6180 cc         1 G5J       0.147000
      4 C5          -2.8290    -2.3960    -0.3860 cd         1 G5J       0.139500
      5 C6          -3.5030    -3.6580    -0.5880 c          1 G5J       0.662000
      6 O6          -2.9760    -4.7510    -0.4140 o          1 G5J      -0.548100
      7 O2          -3.7720     1.7560     1.7360 oh         1 G5J      -0.733000
      8 O3          -3.7960     3.9320     0.0030 oh         1 G5J      -0.734000
      9 O4          -2.0830     1.7960    -1.3670 os         1 G5J      -0.409000
     10 O5           0.4150     2.9750    -1.9190 os         1 G5J      -0.588400
     11 C1          -2.9290     1.1980    -0.4320 c5         1 G5J       0.329300
     12 C7          -2.6970     1.9560     0.8700 c5         1 G5J       0.065300
     13 C3          -2.5470     3.3810     0.3310 c5         1 G5J       0.092300
     14 C3G          5.0000    -3.4270     0.6130 c3         1 G5J       0.228900
     15 C9          -1.7630     3.1340    -0.9550 c5         1 G5J       0.169300
     16 C10         -0.2760     3.2870    -0.7270 c3         1 G5J       0.201600
     17 C8          -1.4710    -0.8140     0.0360 cc         1 G5J       0.475400
     18 N1          -4.8120    -3.5600    -1.0010 nd         1 G5J      -0.827100
     19 N3          -4.7980    -1.2020    -1.0320 na         1 G5J      -0.909200
     20 N7          -1.5500    -2.1070     0.0220 nd         1 G5J      -0.556000
     21 N9          -2.6550    -0.2130    -0.3500 na         1 G5J      -0.199500
     22 O1A          2.5090     2.6940    -3.2470 o          1 G5J      -0.860000
     23 O1B          3.7040     0.8330     0.6340 o          1 G5J      -0.890000
     24 O1G          2.4990    -2.0830     1.9970 o          1 G5J      -0.864500
     25 O2A          2.6320     3.5800    -0.7850 o          1 G5J      -0.860000
     26 O2B          1.1440     0.8480     1.0590 o          1 G5J      -0.890000
     27 O2G          1.9500    -3.5270    -0.0960 o          1 G5J      -0.864500
     28 O3A          2.0590     1.1330    -1.3330 os         1 G5J      -0.710800
     29 O3B          2.2090    -1.0290    -0.3410 os         1 G5J      -0.691800
     30 O3G          4.2190    -2.3640     0.1100 os         1 G5J      -0.570400
     31 PA           2.0320     2.6970    -1.8310 p5         1 G5J       1.467800
     32 PB           2.3170     0.5300     0.1760 p5         1 G5J       1.548800
     33 PG           2.6260    -2.3490     0.5290 p5         1 G5J       1.455800
     34 H1          -7.1380    -3.2510    -1.8140 hn         1 G5J       0.483000
     35 H2          -7.1450    -1.5330    -1.8620 hn         1 G5J       0.483000
     36 H3          -3.4860     1.9400     2.6360 ho         1 G5J       0.507000
     37 H4          -4.3700     3.8550     0.7740 ho         1 G5J       0.491000
     38 H5          -3.9830     1.3030    -0.7210 h2         1 G5J       0.023700
     39 H6          -1.7450     1.6390     1.3140 h1         1 G5J       0.136700
     40 H7          -1.9920     4.0230     1.0280 h1         1 G5J       0.060700
     41 H8           4.9960    -3.4620     1.7060 h1         1 G5J      -0.020300
     42 H9           4.6620    -4.3990     0.2420 h1         1 G5J      -0.020300
     43 H10          6.0280    -3.2780     0.2840 h1         1 G5J      -0.020300
     44 H11         -2.0870     3.8240    -1.7400 h1         1 G5J       0.063700
     45 H12          0.0470     2.6510     0.1010 h1         1 G5J       0.046200
     46 H13         -0.0940     4.3270    -0.4340 h1         1 G5J       0.046200
     47 H14         -0.6000    -0.2330     0.3160 h5         1 G5J       0.159100
     48 H15         -5.2930    -0.3410    -1.2130 hn         1 G5J       0.488000
@<TRIPOS>BOND
     1     1     2 1   
     2     1    18 2   
     3     1    19 1   
     4     2    34 1   
     5     2    35 1   
     6     3     4 2   
     7     3    19 1   
     8     3    21 1   
     9     4     5 1   
    10     4    20 1   
    11     5     6 2   
    12     5    18 1   
    13     7    12 1   
    14     7    36 1   
    15     8    13 1   
    16     8    37 1   
    17     9    11 1   
    18     9    15 1   
    19    10    16 1   
    20    10    31 1   
    21    11    12 1   
    22    11    21 1   
    23    11    38 1   
    24    12    13 1   
    25    12    39 1   
    26    13    15 1   
    27    13    40 1   
    28    14    30 1   
    29    14    41 1   
    30    14    42 1   
    31    14    43 1   
    32    15    16 1   
    33    15    44 1   
    34    16    45 1   
    35    16    46 1   
    36    17    20 2   
    37    17    21 1   
    38    17    47 1   
    39    19    48 1   
    40    22    31 1   
    41    23    32 1   
    42    24    33 1   
    43    25    31 1   
    44    26    32 1   
    45    27    33 1   
    46    28    31 1   
    47    28    32 1   
    48    29    32 1   
    49    29    33 1   
    50    30    33 1   
@<TRIPOS>SUBSTRUCTURE
     1 G5J         1 TEMP              0 ****  ****    0 ROOT
