@<TRIPOS>MOLECULE
G5J
   48    50     1     0     0
SMALL
No Charge or Current Charge


@<TRIPOS>ATOM
      1 C2          -5.2380    -2.4640    -1.6580 cc         1 G5J       0.885100
      2 N2          -6.4890    -2.2190    -1.8680 nv         1 G5J      -1.086200
      3 C4          -3.1190    -1.6370    -1.1390 cc         1 G5J       0.147000
      4 C5          -2.5650    -2.8630    -1.2370 cd         1 G5J       0.139500
      5 C6          -3.4450    -4.0010    -1.5910 c          1 G5J       0.662000
      6 O6          -3.0810    -5.1620    -1.7190 o          1 G5J      -0.548100
      7 O2          -2.6160     1.0640     1.9830 oh         1 G5J      -0.733000
      8 O3          -2.7450     3.4670     1.0720 oh         1 G5J      -0.734000
      9 O4          -1.6710     1.4540    -1.5210 os         1 G5J      -0.409000
     10 O5           0.5690     2.8410    -2.2180 os         1 G5J      -0.588400
     11 C1          -2.3590     0.7090    -0.5160 c5         1 G5J       0.329300
     12 C7          -1.7710     1.2700     0.8180 c5         1 G5J       0.065300
     13 C3          -1.6300     2.7920     0.4860 c5         1 G5J       0.092300
     14 C3G          2.7290    -2.8720     0.6180 c3         1 G5J       0.228900
     15 C9          -1.6630     2.8330    -1.0880 c5         1 G5J       0.169300
     16 C10         -0.5330     3.6630    -1.7760 c3         1 G5J       0.201600
     17 C8          -1.0080    -1.4430    -0.6870 cc         1 G5J       0.475400
     18 N1          -4.7900    -3.6680    -1.7860 nd         1 G5J      -0.827100
     19 N3          -4.4770    -1.3970    -1.3260 na         1 G5J      -0.909200
     20 N7          -1.2050    -2.7440    -0.9560 nd         1 G5J      -0.556000
     21 N9          -2.1850    -0.7140    -0.7840 na         1 G5J      -0.199500
     22 O1A          2.9630     2.0780    -2.2170 o          1 G5J      -0.860000
     23 O1B          3.6490     1.1910     0.6380 o          1 G5J      -0.890000
     24 O1G          3.0140    -0.1850     3.3820 o          1 G5J      -0.864500
     25 O2A          2.2760     3.8870    -0.6620 o          1 G5J      -0.860000
     26 O2B          1.8270     2.2990     1.9640 o          1 G5J      -0.890000
     27 O2G          1.2800    -1.8650     3.0230 o          1 G5J      -0.864500
     28 O3A          1.3080     1.4950    -0.3690 os         1 G5J      -0.710800
     29 O3B          1.5340    -0.1040     1.2500 os         1 G5J      -0.691800
     30 O3G          3.2580    -1.8100     1.4090 os         1 G5J      -0.570400
     31 PA           1.8910     2.6040    -1.3210 p5         1 G5J       1.467800
     32 PB           2.1870     1.2900     0.9230 p5         1 G5J       1.548800
     33 PG           2.2630    -0.9630     2.3520 p5         1 G5J       1.455800
     34 H1          -6.9520    -3.0100    -2.2920 hn         1 G5J       0.483000
     35 H2          -6.6770    -1.3330    -2.3120 hn         1 G5J       0.483000
     36 H3          -2.5210     0.1220     2.2670 ho         1 G5J       0.507000
     37 H4          -3.0780     2.7710     1.7010 ho         1 G5J       0.491000
     38 H5          -3.4320     0.9250    -0.5790 h2         1 G5J       0.023700
     39 H6          -0.7720     0.8480     0.9850 h1         1 G5J       0.136700
     40 H7          -0.6850     3.1890     0.8810 h1         1 G5J       0.060700
     41 H8           2.4570    -3.7270     1.2500 h1         1 G5J      -0.020300
     42 H9           1.8400    -2.5460     0.0640 h1         1 G5J      -0.020300
     43 H10          3.4780    -3.2090    -0.1090 h1         1 G5J      -0.020300
     44 H11         -2.6160     3.2770    -1.4070 h1         1 G5J       0.063700
     45 H12         -0.2020     4.4560    -1.0920 h1         1 G5J       0.046200
     46 H13         -0.9740     4.1670    -2.6460 h1         1 G5J       0.046200
     47 H14         -0.0600    -0.9770    -0.4460 h5         1 G5J       0.159100
     48 H15         -4.9100    -0.4940    -1.2060 hn         1 G5J       0.488000
@<TRIPOS>BOND
     1     1     2 1   
     2     1    18 2   
     3     1    19 1   
     4     2    34 1   
     5     2    35 1   
     6     3     4 2   
     7     3    19 1   
     8     3    21 1   
     9     4     5 1   
    10     4    20 1   
    11     5     6 2   
    12     5    18 1   
    13     7    12 1   
    14     7    36 1   
    15     8    13 1   
    16     8    37 1   
    17     9    11 1   
    18     9    15 1   
    19    10    16 1   
    20    10    31 1   
    21    11    12 1   
    22    11    21 1   
    23    11    38 1   
    24    12    13 1   
    25    12    39 1   
    26    13    15 1   
    27    13    40 1   
    28    14    30 1   
    29    14    41 1   
    30    14    42 1   
    31    14    43 1   
    32    15    16 1   
    33    15    44 1   
    34    16    45 1   
    35    16    46 1   
    36    17    20 2   
    37    17    21 1   
    38    17    47 1   
    39    19    48 1   
    40    22    31 1   
    41    23    32 1   
    42    24    33 1   
    43    25    31 1   
    44    26    32 1   
    45    27    33 1   
    46    28    31 1   
    47    28    32 1   
    48    29    32 1   
    49    29    33 1   
    50    30    33 1   
@<TRIPOS>SUBSTRUCTURE
     1 G5J         1 TEMP              0 ****  ****    0 ROOT
