@<TRIPOS>MOLECULE
G5K
   59    63     1     0     0
SMALL
No Charge or Current Charge


@<TRIPOS>ATOM
      1 C1           4.3630     5.1500     2.3760 c2         1 G5K      -0.235000
      2 C2           3.9370     4.4860     1.2730 ce         1 G5K      -0.295200
      3 C3           2.7420     3.5820     1.2470 c          1 G5K       0.609300
      4 O4           2.2440     3.1680     2.2850 o          1 G5K      -0.606100
      5 N5           2.1600     3.2670     0.0030 n          1 G5K      -0.417800
      6 C6           2.6240     3.7890    -1.3040 c5         1 G5K       0.110000
      7 C7           1.4360     3.4240    -2.2340 c5         1 G5K      -0.107400
      8 C8           1.0150     2.0550    -1.6490 c5         1 G5K       0.224500
      9 C9           0.9880     2.3700    -0.1230 c5         1 G5K       0.077000
     10 N10         -0.4000     1.8680    -2.0970 nu         1 G5K      -0.909100
     11 C11         -1.0210     0.6880    -1.6840 ca         1 G5K       0.423900
     12 N12         -2.3610     0.7450    -1.6480 nb         1 G5K      -0.246000
     13 C13         -3.0050    -0.3740    -1.2580 ca         1 G5K       0.191300
     14 C14         -4.5340    -0.3230    -1.2020 c3         1 G5K       0.113500
     15 N15         -5.0940     0.3020     0.0280 n3         1 G5K      -0.694600
     16 C16         -4.6970    -0.3990     1.2910 c6         1 G5K       0.124800
     17 C17         -5.3000     0.2940     2.5500 c6         1 G5K       0.154100
     18 O18         -6.7380     0.4040     2.4240 os         1 G5K      -0.450000
     19 C19         -7.1400     1.1490     1.2490 c6         1 G5K       0.154100
     20 C20         -6.5790     0.4730    -0.0370 c6         1 G5K       0.124800
     21 C21         -2.2910    -1.5360    -0.9140 ca         1 G5K      -0.330000
     22 C22         -0.8990    -1.4840    -0.9870 ca         1 G5K       0.418900
     23 N23         -0.1530    -2.5960    -0.6480 nu         1 G5K      -0.849100
     24 C24          1.1690    -2.8410    -0.4600 cc         1 G5K       0.608100
     25 N25          1.4580    -4.0990    -0.1510 nd         1 G5K      -0.618100
     26 C26          2.8380    -4.1480     0.0180 ca         1 G5K       0.086400
     27 C27          3.5530    -5.3090     0.3500 ca         1 G5K      -0.036000
     28 C28          4.9520    -5.1980     0.4880 ca         1 G5K      -0.158000
     29 C29          5.5710    -3.9460     0.2900 ca         1 G5K       0.328900
     30 N30          4.8790    -2.8250    -0.0300 nb         1 G5K      -0.620000
     31 C31          3.5380    -2.9620    -0.1550 ca         1 G5K       0.322300
     32 S32          2.4750    -1.6320    -0.5600 ss         1 G5K      -0.076500
     33 N33         -0.2580    -0.3770    -1.3780 nb         1 G5K      -0.316000
     34 H1           3.8690     5.0420     3.3430 ha         1 G5K       0.175000
     35 H2           5.2220     5.8230     2.3450 ha         1 G5K       0.175000
     36 H3           4.4450     4.6520     0.3260 ha         1 G5K       0.176000
     37 H4           2.8010     4.8720    -1.2860 h1         1 G5K       0.049700
     38 H5           3.5500     3.2850    -1.6140 h1         1 G5K       0.049700
     39 H6           0.6440     4.1780    -2.1500 hc         1 G5K       0.060700
     40 H7           1.7290     3.3650    -3.2880 hc         1 G5K       0.060700
     41 H8           1.7190     1.2510    -1.9190 h1         1 G5K       0.089700
     42 H9           1.0900     1.4600     0.4830 h1         1 G5K       0.066700
     43 H10          0.0720     2.8940     0.1810 h1         1 G5K       0.066700
     44 H11         -1.0290     2.6630    -2.2100 hn         1 G5K       0.508000
     45 H12         -4.8830     0.2300    -2.0850 h1         1 G5K       0.048200
     46 H13         -4.9180    -1.3470    -1.3060 h1         1 G5K       0.048200
     47 H15         -5.0350    -1.4460     1.2690 h1         1 G5K       0.041700
     48 H16         -3.6020    -0.4150     1.3960 h1         1 G5K       0.041700
     49 H17         -5.0600    -0.2900     3.4490 h1         1 G5K       0.052450
     50 H18         -4.8680     1.2980     2.6680 h1         1 G5K       0.052450
     51 H19         -8.2370     1.1870     1.2040 h1         1 G5K       0.052450
     52 H20         -6.7640     2.1790     1.3260 h1         1 G5K       0.052450
     53 H21         -6.8550     1.0870    -0.9070 h1         1 G5K       0.041700
     54 H22         -7.0700    -0.5040    -0.1630 h1         1 G5K       0.041700
     55 H23         -2.8090    -2.4350    -0.5960 ha         1 G5K       0.137000
     56 H24         -0.6950    -3.4310    -0.4590 hn         1 G5K       0.521000
     57 H25          3.0440    -6.2590     0.4960 ha         1 G5K       0.134000
     58 H26          5.5530    -6.0660     0.7440 ha         1 G5K       0.125000
     59 H27          6.6500    -3.8380     0.3920 h4         1 G5K       0.022100
@<TRIPOS>BOND
     1     1     2 2   
     2     1    34 1   
     3     1    35 1   
     4     2     3 1   
     5     2    36 1   
     6     3     4 2   
     7     3     5 1   
     8     5     6 1   
     9     5     9 1   
    10     6     7 1   
    11     6    37 1   
    12     6    38 1   
    13     7     8 1   
    14     7    39 1   
    15     7    40 1   
    16     8     9 1   
    17     8    10 1   
    18     8    41 1   
    19     9    42 1   
    20     9    43 1   
    21    10    11 1   
    22    10    44 1   
    23    11    12 ar  
    24    11    33 ar  
    25    12    13 ar  
    26    13    14 1   
    27    13    21 ar  
    28    14    15 1   
    29    14    45 1   
    30    14    46 1   
    31    15    16 1   
    32    15    20 1   
    33    16    17 1   
    34    16    47 1   
    35    16    48 1   
    36    17    18 1   
    37    17    49 1   
    38    17    50 1   
    39    18    19 1   
    40    19    20 1   
    41    19    51 1   
    42    19    52 1   
    43    20    53 1   
    44    20    54 1   
    45    21    22 ar  
    46    21    55 1   
    47    22    23 1   
    48    22    33 ar  
    49    23    24 1   
    50    23    56 1   
    51    24    25 2   
    52    24    32 1   
    53    25    26 1   
    54    26    27 ar  
    55    26    31 ar  
    56    27    28 ar  
    57    27    57 1   
    58    28    29 ar  
    59    28    58 1   
    60    29    30 ar  
    61    29    59 1   
    62    30    31 ar  
    63    31    32 1   
@<TRIPOS>SUBSTRUCTURE
     1 G5K         1 TEMP              0 ****  ****    0 ROOT
