@<TRIPOS>MOLECULE
G5K
   59    63     1     0     0
SMALL
bcc


@<TRIPOS>ATOM
      1 C1           5.2920     4.1420     2.0160 c2         1 G5K      -0.135000
      2 C2           4.4360     3.8610     1.0400 ce         1 G5K      -0.245200
      3 C3           3.2090     3.0600     1.2990 c          1 G5K       0.676300
      4 O4           2.9970     2.5390     2.3900 o          1 G5K      -0.606100
      5 N5           2.3480     2.9290     0.2760 n          1 G5K      -0.484800
      6 C6           2.4520     3.5610    -1.0410 c5         1 G5K       0.110000
      7 C7           1.0950     3.2870    -1.6760 c5         1 G5K      -0.107400
      8 C8           0.6890     1.9590    -1.0500 c5         1 G5K       0.224500
      9 C9           1.1520     2.1140     0.4020 c5         1 G5K       0.077000
     10 N10         -0.7110     1.6790    -1.2050 nu         1 G5K      -0.853900
     11 C11         -1.2700     0.4730    -0.9890 ca         1 G5K       0.949900
     12 N12         -2.6020     0.4170    -1.0230 nb         1 G5K      -0.772000
     13 C13         -3.1560    -0.7700    -0.8010 ca         1 G5K       0.519600
     14 C14         -4.6570    -0.8580    -0.8610 c3         1 G5K       0.113500
     15 N15         -5.3160     0.2260    -0.1730 n3         1 G5K      -0.694600
     16 C16         -5.0730     0.1930     1.2580 c6         1 G5K       0.124800
     17 C17         -5.7790     1.3540     1.9310 c6         1 G5K       0.130900
     18 O18         -7.1640     1.3470     1.6660 os         1 G5K      -0.403600
     19 C19         -7.4060     1.3850     0.2770 c6         1 G5K       0.130900
     20 C20         -6.7440     0.2220    -0.4360 c6         1 G5K       0.124800
     21 C21         -2.4060    -1.9060    -0.5560 ca         1 G5K      -0.478600
     22 C22         -1.0210    -1.7340    -0.5690 ca         1 G5K       0.747200
     23 N23         -0.2010    -2.8080    -0.3530 nu         1 G5K      -0.793900
     24 C24          1.1580    -2.8410    -0.3380 cc         1 G5K       0.608100
     25 N25          1.7800    -3.9560    -0.1310 nd         1 G5K      -0.618100
     26 C26          3.1340    -3.7660    -0.1590 ca         1 G5K       0.021100
     27 C27          4.1250    -4.7250     0.0190 ca         1 G5K      -0.054000
     28 C28          5.4410    -4.3040    -0.0510 ca         1 G5K      -0.241300
     29 C29          5.7290    -2.9610    -0.2920 ca         1 G5K       0.394200
     30 N30          4.7950    -2.0310    -0.4660 nb         1 G5K      -0.620000
     31 C31          3.5490    -2.4480    -0.3960 ca         1 G5K       0.387600
     32 S32          2.1500    -1.4180    -0.5910 ss         1 G5K      -0.076500
     33 N33         -0.4510    -0.5620    -0.7750 nb         1 G5K      -0.842000
     34 H1           5.1300     3.8120     3.0340 ha         1 G5K       0.125000
     35 H2           6.1870     4.7180     1.8230 ha         1 G5K       0.125000
     36 H3           4.6390     4.2100     0.0350 ha         1 G5K       0.126000
     37 H4           2.6540     4.6290    -0.9620 h1         1 G5K       0.049700
     38 H5           3.2530     3.1060    -1.6290 h1         1 G5K       0.049700
     39 H6           0.3810     4.0670    -1.3980 hc         1 G5K       0.060700
     40 H7           1.1500     3.2490    -2.7620 hc         1 G5K       0.060700
     41 H8           1.2600     1.1560    -1.5210 h1         1 G5K       0.089700
     42 H9           1.3690     1.1580     0.8760 h1         1 G5K       0.066700
     43 H10          0.3830     2.6220     0.9940 h1         1 G5K       0.066700
     44 H11         -1.3510     2.4570    -1.2420 hn         1 G5K       0.452800
     45 H12         -4.9480    -0.8230    -1.9170 h1         1 G5K       0.048200
     46 H13         -4.9730    -1.8450    -0.4850 h1         1 G5K       0.048200
     47 H15         -5.4100    -0.7590     1.7060 h1         1 G5K       0.041700
     48 H16         -4.0020     0.2810     1.4560 h1         1 G5K       0.041700
     49 H17         -5.6510     1.2940     3.0120 h1         1 G5K       0.052450
     50 H18         -5.3280     2.2970     1.5880 h1         1 G5K       0.052450
     51 H19         -8.4860     1.3470     0.1300 h1         1 G5K       0.052450
     52 H20         -7.0390     2.3290    -0.1510 h1         1 G5K       0.052450
     53 H21         -6.9150     0.3220    -1.5110 h1         1 G5K       0.041700
     54 H22         -7.2170    -0.7230    -0.1160 h1         1 G5K       0.041700
     55 H23         -2.8650    -2.8640    -0.3570 ha         1 G5K       0.155000
     56 H24         -0.6390    -3.7030    -0.1830 hn         1 G5K       0.465800
     57 H25          3.8690    -5.7610     0.2030 ha         1 G5K       0.152000
     58 H26          6.2520    -5.0060     0.0790 ha         1 G5K       0.143000
     59 H27          6.7580    -2.6270    -0.3490 h4         1 G5K       0.022100
@<TRIPOS>BOND
     1     1     2 2   
     2     1    34 1   
     3     1    35 1   
     4     2     3 1   
     5     2    36 1   
     6     3     4 2   
     7     3     5 1   
     8     5     6 1   
     9     5     9 1   
    10     6     7 1   
    11     6    37 1   
    12     6    38 1   
    13     7     8 1   
    14     7    39 1   
    15     7    40 1   
    16     8     9 1   
    17     8    10 1   
    18     8    41 1   
    19     9    42 1   
    20     9    43 1   
    21    10    11 1   
    22    10    44 1   
    23    11    12 ar  
    24    11    33 ar  
    25    12    13 ar  
    26    13    14 1   
    27    13    21 ar  
    28    14    15 1   
    29    14    45 1   
    30    14    46 1   
    31    15    16 1   
    32    15    20 1   
    33    16    17 1   
    34    16    47 1   
    35    16    48 1   
    36    17    18 1   
    37    17    49 1   
    38    17    50 1   
    39    18    19 1   
    40    19    20 1   
    41    19    51 1   
    42    19    52 1   
    43    20    53 1   
    44    20    54 1   
    45    21    22 ar  
    46    21    55 1   
    47    22    23 1   
    48    22    33 ar  
    49    23    24 1   
    50    23    56 1   
    51    24    25 2   
    52    24    32 1   
    53    25    26 1   
    54    26    27 ar  
    55    26    31 ar  
    56    27    28 ar  
    57    27    57 1   
    58    28    29 ar  
    59    28    58 1   
    60    29    30 ar  
    61    29    59 1   
    62    30    31 ar  
    63    31    32 1   
@<TRIPOS>SUBSTRUCTURE
     1 G5K         1 TEMP              0 ****  ****    0 ROOT
