@<TRIPOS>MOLECULE
G5L
   37    39     1     0     0
SMALL
abcg2


@<TRIPOS>ATOM
      1 C1         103.2070   104.1580   111.7900 ca         1 G5L      -0.097500
      2 C2         104.4120   103.5450   112.1030 ca         1 G5L      -0.109500
      3 C3         104.8400   103.4830   113.4230 ca         1 G5L      -0.112000
      4 C4         104.0540   104.0390   114.4230 ca         1 G5L      -0.109500
      5 C5         102.8460   104.6500   114.1080 ca         1 G5L      -0.097500
      6 C10        101.1440   107.5510   113.4150 ca         1 G5L       0.351000
      7 C11        102.2130   107.9150   112.5780 ca         1 G5L      -0.228000
      8 C12        102.7390   109.1900   112.6560 ca         1 G5L       0.213100
      9 C13        102.2590   110.1480   113.5470 ca         1 G5L      -0.175800
     10 C14        101.2030   109.7730   114.3880 ca         1 G5L      -0.026000
     11 C15        100.6570   108.5160   114.3340 ca         1 G5L      -0.231000
     12 C16        102.8780   111.4250   113.5370 cc         1 G5L      -0.116200
     13 C17        103.9070   111.7450   112.7120 cd         1 G5L      -0.251400
     14 C18        104.3870   110.7280   111.7840 c          1 G5L       0.675300
     15 C21        104.5160   113.1470   112.7950 c          1 G5L       0.724200
     16 C6         102.4100   104.7130   112.7890 ca         1 G5L      -0.103300
     17 C7         101.0810   105.3330   112.4160 c3         1 G5L       0.283100
     18 C9          99.5300   105.9400   114.2690 c3         1 G5L       0.229100
     19 N8         100.5840   106.3140   113.3500 nh         1 G5L      -0.840400
     20 O19        103.7590   109.5010   111.8320 os         1 G5L      -0.389200
     21 O20        105.2620   110.8060   110.9620 o          1 G5L      -0.467000
     22 O22        105.5370   113.3790   112.1280 o          1 G5L      -0.702500
     23 O23        103.9190   113.9380   113.5530 o          1 G5L      -0.702500
     24 H1         102.8850   104.2130   110.7570 ha         1 G5L       0.113000
     25 H2         105.0210   103.1220   111.3140 ha         1 G5L       0.108000
     26 H3         105.7820   103.0100   113.6690 ha         1 G5L       0.107000
     27 H4         104.3800   103.9990   115.4540 ha         1 G5L       0.108000
     28 H5         102.2480   105.0830   114.9000 ha         1 G5L       0.113000
     29 H6         102.6490   107.2220   111.8720 ha         1 G5L       0.127000
     30 H7         100.8120   110.4950   115.0940 ha         1 G5L       0.109000
     31 H8          99.8440   108.2770   115.0040 ha         1 G5L       0.099000
     32 H9         102.5130   112.1820   114.2220 ha         1 G5L       0.210000
     33 H10        101.1500   105.7660   111.4130 h1         1 G5L       0.050700
     34 H11        100.3320   104.5440   112.3350 h1         1 G5L       0.050700
     35 H12         99.8500   106.0010   115.3120 h1         1 G5L       0.029033
     36 H13         98.6430   106.5670   114.1480 h1         1 G5L       0.029033
     37 H14         99.2350   104.9130   114.0730 h1         1 G5L       0.029033
@<TRIPOS>BOND
     1     1     2 ar  
     2     1    16 ar  
     3     1    24 1   
     4     2     3 ar  
     5     2    25 1   
     6     3     4 ar  
     7     3    26 1   
     8     4     5 ar  
     9     4    27 1   
    10     5    16 ar  
    11     5    28 1   
    12     6     7 ar  
    13     6    11 ar  
    14     6    19 1   
    15     7     8 ar  
    16     7    29 1   
    17     8     9 ar  
    18     8    20 1   
    19     9    10 ar  
    20     9    12 1   
    21    10    11 ar  
    22    10    30 1   
    23    11    31 1   
    24    12    13 2   
    25    12    32 1   
    26    13    14 1   
    27    13    15 1   
    28    14    20 1   
    29    14    21 2   
    30    15    22 1   
    31    15    23 1   
    32    16    17 1   
    33    17    19 1   
    34    17    33 1   
    35    17    34 1   
    36    18    19 1   
    37    18    35 1   
    38    18    36 1   
    39    18    37 1   
@<TRIPOS>SUBSTRUCTURE
     1 G5L         1 TEMP              0 ****  ****    0 ROOT
