@<TRIPOS>MOLECULE
G5L
   37    39     1     0     0
SMALL
No Charge or Current Charge


@<TRIPOS>ATOM
      1 C1         103.4210   104.7890   112.0100 ca         1 G5L      -0.097500
      2 C2         104.7490   104.5570   112.4090 ca         1 G5L      -0.109500
      3 C3         105.0440   104.2960   113.7580 ca         1 G5L      -0.112000
      4 C4         104.0090   104.2680   114.7080 ca         1 G5L      -0.109500
      5 C5         102.6810   104.5000   114.3100 ca         1 G5L      -0.097500
      6 C10        101.0370   107.4200   113.3030 ca         1 G5L       0.351000
      7 C11        101.8240   107.8970   112.2440 ca         1 G5L      -0.228000
      8 C12        102.5430   109.0900   112.3790 ca         1 G5L       0.213100
      9 C13        102.4890   109.8300   113.5650 ca         1 G5L      -0.175800
     10 C14        101.6990   109.3630   114.6290 ca         1 G5L      -0.026000
     11 C15        100.9770   108.1650   114.4950 ca         1 G5L      -0.231000
     12 C16        103.2410   111.0690   113.6960 cc         1 G5L      -0.116200
     13 C17        104.0070   111.4840   112.6070 cd         1 G5L      -0.251400
     14 C18        104.0490   110.6770   111.3490 c          1 G5L       0.675300
     15 C21        104.7890   112.7510   112.7160 c          1 G5L       0.724200
     16 C6         102.3780   104.7630   112.9580 ca         1 G5L      -0.103300
     17 C7         100.9330   105.0210   112.5320 c3         1 G5L       0.283100
     18 C9          99.0100   106.0190   113.8360 c3         1 G5L       0.229100
     19 N8         100.3170   106.2110   113.1700 nh         1 G5L      -0.840400
     20 O19        103.3020   109.5280   111.3330 os         1 G5L      -0.389200
     21 O20        104.6930   110.9700   110.3520 o          1 G5L      -0.467000
     22 O22        105.4700   113.1450   111.7830 o          1 G5L      -0.702500
     23 O23        104.7260   113.3800   113.7630 o          1 G5L      -0.702500
     24 H1         103.2040   104.9930   110.9640 ha         1 G5L       0.113000
     25 H2         105.5490   104.5800   111.6730 ha         1 G5L       0.108000
     26 H3         106.0720   104.1170   114.0660 ha         1 G5L       0.107000
     27 H4         104.2360   104.0670   115.7530 ha         1 G5L       0.108000
     28 H5         101.8850   104.4820   115.0510 ha         1 G5L       0.113000
     29 H6         101.8770   107.3480   111.3100 ha         1 G5L       0.127000
     30 H7         101.6450   109.9230   115.5610 ha         1 G5L       0.109000
     31 H8         100.3830   107.8120   115.3330 ha         1 G5L       0.099000
     32 H9         103.2040   111.6500   114.6160 ha         1 G5L       0.210000
     33 H10        100.8900   105.1310   111.4390 h1         1 G5L       0.050700
     34 H11        100.3510   104.1220   112.7760 h1         1 G5L       0.050700
     35 H12         99.1500   105.6120   114.8460 h1         1 G5L       0.029033
     36 H13         98.4710   106.9730   113.9100 h1         1 G5L       0.029033
     37 H14         98.3810   105.3260   113.2610 h1         1 G5L       0.029033
@<TRIPOS>BOND
     1     1     2 ar  
     2     1    16 ar  
     3     1    24 1   
     4     2     3 ar  
     5     2    25 1   
     6     3     4 ar  
     7     3    26 1   
     8     4     5 ar  
     9     4    27 1   
    10     5    16 ar  
    11     5    28 1   
    12     6     7 ar  
    13     6    11 ar  
    14     6    19 1   
    15     7     8 ar  
    16     7    29 1   
    17     8     9 ar  
    18     8    20 1   
    19     9    10 ar  
    20     9    12 1   
    21    10    11 ar  
    22    10    30 1   
    23    11    31 1   
    24    12    13 2   
    25    12    32 1   
    26    13    14 1   
    27    13    15 1   
    28    14    20 1   
    29    14    21 2   
    30    15    22 1   
    31    15    23 1   
    32    16    17 1   
    33    17    19 1   
    34    17    33 1   
    35    17    34 1   
    36    18    19 1   
    37    18    35 1   
    38    18    36 1   
    39    18    37 1   
@<TRIPOS>SUBSTRUCTURE
     1 G5L         1 TEMP              0 ****  ****    0 ROOT
