@<TRIPOS>MOLECULE
G5M
   46    46     1     0     0
SMALL
No Charge or Current Charge


@<TRIPOS>ATOM
      1 C7          49.2910   122.7140    61.7490 c          1 G5M       0.612100
      2 C9          54.5670   121.4840    62.2090 c3         1 G5M       0.056300
      3 C4          51.2980   118.8230    59.9570 c6         1 G5M       0.147300
      4 C6          53.5750   118.0810    58.9250 c3         1 G5M       0.164600
      5 C1          52.6680   121.3260    60.6440 c6         1 G5M       0.392300
      6 C3          50.6460   119.8200    60.9610 c6         1 G5M       0.117300
      7 C2          51.1070   121.2810    60.6590 c6         1 G5M       0.056700
      8 C5          52.8500   118.9870    59.9780 c6         1 G5M       0.181300
      9 C10         55.5120   120.3150    62.6870 c          1 G5M       0.708000
     10 C11         54.4900   122.6420    63.2440 c3         1 G5M      -0.185400
     11 C12         53.6780   123.8220    62.6960 c          1 G5M       0.714000
     12 C24         49.2490   123.3370    64.2410 c3         1 G5M       0.099600
     13 C8          49.0580   123.8700    62.7920 c3         1 G5M       0.081500
     14 N2          50.5860   122.2670    61.6390 ns         1 G5M      -0.490900
     15 N25         47.7650   124.6530    62.6540 n8         1 G5M      -0.994200
     16 O1          53.2020   121.0550    61.9560 os         1 G5M      -0.466000
     17 O13         56.7140   120.5410    62.7570 o          1 G5M      -0.749000
     18 O14         55.0420   119.2090    62.9250 o          1 G5M      -0.749000
     19 O15         54.2560   124.6540    62.0150 o          1 G5M      -0.777000
     20 O16         52.4790   123.8610    62.9310 o          1 G5M      -0.777000
     21 O3          49.2110   119.6930    60.8970 oh         1 G5M      -0.701000
     22 O4          50.8770   117.4870    60.2910 oh         1 G5M      -0.732000
     23 O5          53.2080   120.3710    59.7070 os         1 G5M      -0.464000
     24 O7          48.4080   122.2420    61.0390 o          1 G5M      -0.645100
     25 H1          55.0170   121.8810    61.2890 h1         1 G5M       0.027700
     26 H2          50.9450   119.0780    58.9470 h1         1 G5M       0.046700
     27 H3          53.2910   117.0370    59.1120 h1         1 G5M       0.033700
     28 H4          54.6540   118.1540    59.1170 h1         1 G5M       0.033700
     29 H5          52.9720   122.3380    60.3340 h2         1 G5M       0.069700
     30 H6          50.9930   119.5630    61.9750 h1         1 G5M       0.069700
     31 H7          50.7520   121.5700    59.6590 h1         1 G5M       0.077700
     32 H8          53.2240   118.7040    60.9730 h1         1 G5M       0.105700
     33 H9          54.0130   122.2260    64.1390 hc         1 G5M       0.037200
     34 H10         55.5280   122.9550    63.4070 hc         1 G5M       0.037200
     35 H11         50.2580   122.9140    64.3400 h1         1 G5M       0.082700
     36 H12         49.1860   124.1790    64.9430 h1         1 G5M       0.082700
     37 H13         49.8790   124.5780    62.6080 h1         1 G5M       0.094700
     38 H14         51.2750   122.7490    62.2270 hn         1 G5M       0.386500
     39 H15         47.7980   125.4900    63.2480 hn         1 G5M       0.392000
     40 H16         47.6900   125.0270    61.6990 hn         1 G5M       0.392000
     41 H20         48.8510   120.6220    60.9460 ho         1 G5M       0.465000
     42 H21         49.9380   117.6020    60.5760 ho         1 G5M       0.499000
     43 H22         53.8530   117.8440    56.9890 ho         1 G5M       0.471000
     44 H23         48.5220   121.8830    66.0350 hs         1 G5M       0.181800
     45 O6          53.3000   118.4330    57.5510 oh         1 G5M      -0.720000
     46 S26         48.0290   122.0370    64.7820 sh         1 G5M      -0.466800
@<TRIPOS>BOND
     1     1    13 1   
     2     1    14 1   
     3     1    24 2   
     4     2     9 1   
     5     2    10 1   
     6     2    16 1   
     7     2    25 1   
     8     3     6 1   
     9     3     8 1   
    10     3    22 1   
    11     3    26 1   
    12     4     8 1   
    13     4    27 1   
    14     4    28 1   
    15     4    45 1   
    16     5     7 1   
    17     5    16 1   
    18     5    23 1   
    19     5    29 1   
    20     6     7 1   
    21     6    21 1   
    22     6    30 1   
    23     7    14 1   
    24     7    31 1   
    25     8    23 1   
    26     8    32 1   
    27     9    17 1   
    28     9    18 1   
    29    10    11 1   
    30    10    33 1   
    31    10    34 1   
    32    11    19 1   
    33    11    20 1   
    34    12    13 1   
    35    12    35 1   
    36    12    36 1   
    37    12    46 1   
    38    13    15 1   
    39    13    37 1   
    40    14    38 1   
    41    15    39 1   
    42    15    40 1   
    43    21    41 1   
    44    22    42 1   
    45    43    45 1   
    46    44    46 1   
@<TRIPOS>SUBSTRUCTURE
     1 G5M         1 TEMP              0 ****  ****    0 ROOT
