@<TRIPOS>MOLECULE
G5M
   46    46     1     0     0
SMALL
abcg2


@<TRIPOS>ATOM
      1 C7          49.7510   123.1350    61.4740 c          1 G5M       0.612100
      2 C9          54.5430   121.9000    61.9030 c3         1 G5M       0.056300
      3 C4          51.2200   118.7990    60.3250 c6         1 G5M       0.147300
      4 C6          53.3260   117.9560    59.1550 c3         1 G5M       0.164600
      5 C1          52.6700   121.2860    60.5340 c6         1 G5M       0.392300
      6 C3          50.7250   119.8710    61.2860 c6         1 G5M       0.117300
      7 C2          51.1600   121.2490    60.7810 c6         1 G5M       0.056700
      8 C5          52.7310   118.9450    60.1330 c6         1 G5M       0.181300
      9 C10         55.7790   121.0150    61.6280 c          1 G5M       0.708000
     10 C11         54.5900   122.4330    63.3360 c3         1 G5M      -0.185400
     11 C12         53.3490   123.2950    63.6190 c          1 G5M       0.714000
     12 C24         49.0660   123.2240    63.9000 c3         1 G5M       0.099600
     13 C8          49.4090   124.0420    62.6590 c3         1 G5M       0.081500
     14 N2          50.7630   122.2820    61.7030 ns         1 G5M      -0.490900
     15 N25         48.2810   124.8790    62.3160 n8         1 G5M      -0.994200
     16 O1          53.3030   121.2250    61.7600 os         1 G5M      -0.466000
     17 O13         56.8160   121.6520    61.3540 o          1 G5M      -0.749000
     18 O14         55.6590   119.7830    61.7540 o          1 G5M      -0.749000
     19 O15         53.3470   124.4470    63.1480 o          1 G5M      -0.777000
     20 O16         52.4140   122.7510    64.2570 o          1 G5M      -0.777000
     21 O3          49.3240   119.7640    61.3650 oh         1 G5M      -0.701000
     22 O4          50.9750   117.5030    60.8180 oh         1 G5M      -0.732000
     23 O5          53.0350   120.2510    59.6660 os         1 G5M      -0.464000
     24 O7          49.1460   123.2080    60.4160 o          1 G5M      -0.645100
     25 H1          54.5640   122.7580    61.2190 h1         1 G5M       0.027700
     26 H2          50.7190   118.9550    59.3580 h1         1 G5M       0.046700
     27 H3          53.2210   116.9510    59.5790 h1         1 G5M       0.033700
     28 H4          54.4040   118.1570    59.0880 h1         1 G5M       0.033700
     29 H5          52.9320   122.2130    60.0060 h2         1 G5M       0.069700
     30 H6          51.1840   119.6920    62.2710 h1         1 G5M       0.069700
     31 H7          50.6670   121.4390    59.8250 h1         1 G5M       0.077700
     32 H8          53.2270   118.7650    61.0930 h1         1 G5M       0.105700
     33 H9          54.6500   121.5910    64.0310 hc         1 G5M       0.037200
     34 H10         55.5020   123.0220    63.4450 hc         1 G5M       0.037200
     35 H11         49.9260   122.6570    64.2440 h1         1 G5M       0.082700
     36 H12         48.7740   123.8990    64.7060 h1         1 G5M       0.082700
     37 H13         50.3230   124.6070    62.9070 h1         1 G5M       0.094700
     38 H14         51.2540   122.3200    62.5950 hn         1 G5M       0.386500
     39 H15         48.1640   125.5850    63.0320 hn         1 G5M       0.392000
     40 H16         48.4570   125.3740    61.4520 hn         1 G5M       0.392000
     41 H20         48.9940   120.3670    62.0470 ho         1 G5M       0.465000
     42 H21         50.0280   117.4150    60.9640 ho         1 G5M       0.499000
     43 H22         53.0280   117.3680    57.3350 ho         1 G5M       0.471000
     44 H23         47.9280   121.2170    64.5230 hs         1 G5M       0.181800
     45 O6          52.6950   118.0690    57.9020 oh         1 G5M      -0.720000
     46 S26         47.6850   122.0830    63.5330 sh         1 G5M      -0.466800
@<TRIPOS>BOND
     1     1    13 1   
     2     1    14 1   
     3     1    24 2   
     4     2     9 1   
     5     2    10 1   
     6     2    16 1   
     7     2    25 1   
     8     3     6 1   
     9     3     8 1   
    10     3    22 1   
    11     3    26 1   
    12     4     8 1   
    13     4    27 1   
    14     4    28 1   
    15     4    45 1   
    16     5     7 1   
    17     5    16 1   
    18     5    23 1   
    19     5    29 1   
    20     6     7 1   
    21     6    21 1   
    22     6    30 1   
    23     7    14 1   
    24     7    31 1   
    25     8    23 1   
    26     8    32 1   
    27     9    17 1   
    28     9    18 1   
    29    10    11 1   
    30    10    33 1   
    31    10    34 1   
    32    11    19 1   
    33    11    20 1   
    34    12    13 1   
    35    12    35 1   
    36    12    36 1   
    37    12    46 1   
    38    13    15 1   
    39    13    37 1   
    40    14    38 1   
    41    15    39 1   
    42    15    40 1   
    43    21    41 1   
    44    22    42 1   
    45    43    45 1   
    46    44    46 1   
@<TRIPOS>SUBSTRUCTURE
     1 G5M         1 TEMP              0 ****  ****    0 ROOT
