@<TRIPOS>MOLECULE
G5O
   41    43     1     0     0
SMALL
abcg2


@<TRIPOS>ATOM
      1 C1         109.1190   105.1570   102.2960 ca         1 G5O      -0.259500
      2 C2         107.8240   104.6940   102.1100 ca         1 G5O      -0.013000
      3 C3         107.6350   103.3850   101.6920 ca         1 G5O      -0.132000
      4 C4         108.7290   102.5590   101.4660 ca         1 G5O      -0.064000
      5 C10        109.4550   106.6640   104.6140 ca         1 G5O      -0.268500
      6 C11        110.6740   106.4090   105.2270 ca         1 G5O      -0.011000
      7 C12        110.7240   106.2880   106.6040 ca         1 G5O      -0.133000
      8 C13        109.5610   106.4380   107.3460 ca         1 G5O       0.203000
      9 C14        108.3420   106.7040   106.7370 ca         1 G5O      -0.129600
     10 C15        108.2930   106.8080   105.3550 ca         1 G5O       0.026000
     11 C17        107.0660   106.8510   107.5240 c          1 G5O       0.614700
     12 C20        105.9200   108.6010   108.8480 ca         1 G5O      -0.003000
     13 C21        106.1080   109.9110   109.3390 ca         1 G5O      -0.193600
     14 C24        103.7350   108.5280   109.8680 ca         1 G5O      -0.106000
     15 C25        104.7290   107.9210   109.1180 ca         1 G5O      -0.174000
     16 C26        107.3720   110.7320   109.0820 c          1 G5O       0.724600
     17 C22        105.0870   110.4860   110.0890 ca         1 G5O      -0.064000
     18 C23        103.9060   109.8130   110.3600 ca         1 G5O      -0.171000
     19 C5         110.0190   103.0380   101.6540 ca         1 G5O      -0.132000
     20 C6         110.2230   104.3440   102.0700 ca         1 G5O      -0.013000
     21 N18        106.9560   108.0600   108.0890 ns         1 G5O      -0.153000
     22 O19        106.2610   105.9360   107.5620 o          1 G5O      -0.631100
     23 O27        107.4120   111.8730   109.5550 o          1 G5O      -0.698000
     24 O28        108.2880   110.1880   108.4040 o          1 G5O      -0.698000
     25 O8         108.1940   107.6100   102.5190 o          1 G5O      -0.529000
     26 O9         110.6890   107.2600   102.3790 o          1 G5O      -0.529000
     27 S7         109.3780   106.8230   102.8450 sy         1 G5O       1.023000
     28 CL1        109.6390   106.2900   109.0640 cl         1 G5O      -0.169000
     29 H1         106.9710   105.3370   102.2840 ha         1 G5O       0.136500
     30 H2         106.6310   103.0120   101.5400 ha         1 G5O       0.114500
     31 H3         108.5750   101.5390   101.1400 ha         1 G5O       0.109000
     32 H4         111.5820   106.3010   104.6500 ha         1 G5O       0.126000
     33 H5         111.6650   106.0840   107.0970 ha         1 G5O       0.127000
     34 H6         107.3480   107.0140   104.8690 ha         1 G5O       0.146000
     35 H7         102.8190   107.9860   110.0650 ha         1 G5O       0.086000
     36 H8         104.5740   106.9220   108.7430 ha         1 G5O       0.127000
     37 H9         105.2310   111.4900   110.4660 ha         1 G5O       0.128000
     38 H10        103.1290   110.2870   110.9450 ha         1 G5O       0.090000
     39 H11        110.8700   102.3950   101.4740 ha         1 G5O       0.114500
     40 H12        111.2290   104.7160   102.2140 ha         1 G5O       0.136500
     41 H13        107.7310   108.7620   108.0090 hn         1 G5O       0.243000
@<TRIPOS>BOND
     1     1     2 ar  
     2     1    20 ar  
     3     1    27 1   
     4     2     3 ar  
     5     2    29 1   
     6     3     4 ar  
     7     3    30 1   
     8     4    19 ar  
     9     4    31 1   
    10     5     6 ar  
    11     5    10 ar  
    12     5    27 1   
    13     6     7 ar  
    14     6    32 1   
    15     7     8 ar  
    16     7    33 1   
    17     8     9 ar  
    18     8    28 1   
    19     9    10 ar  
    20     9    11 1   
    21    10    34 1   
    22    11    21 1   
    23    11    22 2   
    24    12    13 ar  
    25    12    15 ar  
    26    12    21 1   
    27    13    16 1   
    28    13    17 ar  
    29    14    15 ar  
    30    14    18 ar  
    31    14    35 1   
    32    15    36 1   
    33    16    23 1   
    34    16    24 1   
    35    17    18 ar  
    36    17    37 1   
    37    18    38 1   
    38    19    20 ar  
    39    19    39 1   
    40    20    40 1   
    41    21    41 1   
    42    25    27 2   
    43    26    27 2   
@<TRIPOS>SUBSTRUCTURE
     1 G5O         1 TEMP              0 ****  ****    0 ROOT
