@<TRIPOS>MOLECULE
G5O
   41    43     1     0     0
SMALL
No Charge or Current Charge


@<TRIPOS>ATOM
      1 C1         109.2320   104.9450   102.1620 ca         1 G5O      -0.259500
      2 C2         107.8970   104.5170   102.0020 ca         1 G5O      -0.013000
      3 C3         107.6160   103.1550   101.7940 ca         1 G5O      -0.132000
      4 C4         108.6600   102.2160   101.7480 ca         1 G5O      -0.064000
      5 C10        109.5540   106.8160   104.2480 ca         1 G5O      -0.268500
      6 C11        110.7250   106.6180   105.0000 ca         1 G5O      -0.011000
      7 C12        110.6710   106.6910   106.3990 ca         1 G5O      -0.133000
      8 C13        109.4630   106.9710   107.0610 ca         1 G5O       0.203000
      9 C14        108.2770   107.1930   106.3130 ca         1 G5O      -0.129600
     10 C15        108.3370   107.0900   104.9050 ca         1 G5O       0.026000
     11 C17        106.9360   107.5090   106.9340 c          1 G5O       0.614700
     12 C20        105.9080   108.6970   108.9640 ca         1 G5O      -0.003000
     13 C21        106.0940   109.8540   109.7730 ca         1 G5O      -0.193600
     14 C24        103.6840   108.3760   109.9370 ca         1 G5O      -0.106000
     15 C25        104.7040   107.9660   109.0660 ca         1 G5O      -0.174000
     16 C26        107.3610   110.6920   109.7230 c          1 G5O       0.724600
     17 C22        105.0510   110.2540   110.6420 ca         1 G5O      -0.064000
     18 C23        103.8570   109.5220   110.7220 ca         1 G5O      -0.171000
     19 C5         109.9900   102.6390   101.9130 ca         1 G5O      -0.132000
     20 C6         110.2790   103.9990   102.1220 ca         1 G5O      -0.013000
     21 N18        106.9460   108.2780   108.0880 ns         1 G5O      -0.153000
     22 O19        105.8990   107.1140   106.4090 o          1 G5O      -0.631100
     23 O27        107.2690   111.8880   109.9590 o          1 G5O      -0.698000
     24 O28        108.4230   110.1430   109.4670 o          1 G5O      -0.698000
     25 O8         108.4780   107.4780   101.9160 o          1 G5O      -0.529000
     26 O9         110.9790   106.9390   102.0130 o          1 G5O      -0.529000
     27 S7         109.5980   106.6890   102.4490 sy         1 G5O       1.023000
     28 Cl1        109.5010   106.9230   108.8250 cl         1 G5O      -0.169000
     29 H1         107.0760   105.2310   102.0390 ha         1 G5O       0.136500
     30 H2         106.5860   102.8270   101.6690 ha         1 G5O       0.114500
     31 H3         108.4400   101.1630   101.5880 ha         1 G5O       0.109000
     32 H4         111.6720   106.3940   104.5110 ha         1 G5O       0.126000
     33 H5         111.5720   106.5130   106.9800 ha         1 G5O       0.127000
     34 H6         107.4310   107.2390   104.3180 ha         1 G5O       0.146000
     35 H7         102.7620   107.8030   110.0060 ha         1 G5O       0.086000
     36 H8         104.5500   107.0620   108.4830 ha         1 G5O       0.127000
     37 H9         105.1690   111.1380   111.2660 ha         1 G5O       0.128000
     38 H10        103.0680   109.8420   111.3990 ha         1 G5O       0.090000
     39 H11        110.7980   101.9130   101.8810 ha         1 G5O       0.114500
     40 H12        111.3140   104.3110   102.2520 ha         1 G5O       0.136500
     41 H13        107.8640   108.6090   108.3640 hn         1 G5O       0.243000
@<TRIPOS>BOND
     1     1     2 ar  
     2     1    20 ar  
     3     1    27 1   
     4     2     3 ar  
     5     2    29 1   
     6     3     4 ar  
     7     3    30 1   
     8     4    19 ar  
     9     4    31 1   
    10     5     6 ar  
    11     5    10 ar  
    12     5    27 1   
    13     6     7 ar  
    14     6    32 1   
    15     7     8 ar  
    16     7    33 1   
    17     8     9 ar  
    18     8    28 1   
    19     9    10 ar  
    20     9    11 1   
    21    10    34 1   
    22    11    21 1   
    23    11    22 2   
    24    12    13 ar  
    25    12    15 ar  
    26    12    21 1   
    27    13    16 1   
    28    13    17 ar  
    29    14    15 ar  
    30    14    18 ar  
    31    14    35 1   
    32    15    36 1   
    33    16    23 1   
    34    16    24 1   
    35    17    18 ar  
    36    17    37 1   
    37    18    38 1   
    38    19    20 ar  
    39    19    39 1   
    40    20    40 1   
    41    21    41 1   
    42    25    27 2   
    43    26    27 2   
@<TRIPOS>SUBSTRUCTURE
     1 G5O         1 TEMP              0 ****  ****    0 ROOT
