@<TRIPOS>MOLECULE
G5P
   82    87     1     0     0
SMALL
bcc


@<TRIPOS>ATOM
      1 PE          -4.6930    -2.2870    -2.1680 p5         1 G5P       1.448800
      2 O1E         -5.9070    -1.4560    -2.4690 o          1 G5P      -0.871000
      3 O2E         -4.3150    -3.4090    -3.0830 o          1 G5P      -0.871000
      4 PD          -2.3530    -0.8170    -3.0180 p5         1 G5P       1.528800
      5 O1D         -1.1560    -1.7100    -3.0130 o          1 G5P      -0.883000
      6 O2D         -3.1140    -0.5330    -4.2720 o          1 G5P      -0.883000
      7 O3D         -3.4030    -1.3370    -1.8500 os         1 G5P      -0.674800
      8 PG          -1.0580     1.7820    -2.8270 p5         1 G5P       1.530800
      9 O1G         -1.8330     3.0580    -2.7390 o          1 G5P      -0.896000
     10 O2G         -0.4320     1.3360    -4.1090 o          1 G5P      -0.896000
     11 O3G         -2.0100     0.5850    -2.2270 os         1 G5P      -0.703800
     12 PB           0.9890     3.0400    -1.2250 p5         1 G5P       1.524800
     13 O1B          0.3700     3.7440    -0.0610 o          1 G5P      -0.889000
     14 O2B          1.3950     3.7750    -2.4610 o          1 G5P      -0.889000
     15 O3B          0.0620     1.7390    -1.6200 os         1 G5P      -0.695800
     16 O3A          2.2530     2.1290    -0.6750 os         1 G5P      -0.673800
     17 PA           3.8050     2.6380    -0.6750 p5         1 G5P       1.445800
     18 O1A          3.9000     4.0990    -0.3670 o          1 G5P      -0.867000
     19 O2A          4.5290     2.0720    -1.8610 o          1 G5P      -0.867000
     20 O5           4.2070     1.7670     0.6670 os         1 G5P      -0.509200
     21 C5           5.5680     1.7460     1.0320 c3         1 G5P       0.209400
     22 C4           5.9550     0.3620     1.4960 c5         1 G5P       0.129100
     23 O4           5.7450    -0.5980     0.4600 os         1 G5P      -0.315600
     24 C3           7.4380     0.2580     1.8540 c5         1 G5P       0.050100
     25 O3           7.6300     0.5590     3.2090 oh         1 G5P      -0.582800
     26 C2           7.7570    -1.1960     1.4940 c5         1 G5P       0.060100
     27 O2           7.3010    -2.0720     2.4880 oh         1 G5P      -0.586800
     28 C1           6.8690    -1.3950     0.2690 c5         1 G5P       0.265800
     29 N9           7.5450    -0.9860    -0.9630 na         1 G5P      -0.217900
     30 C8           7.1730     0.0000    -1.8470 cc         1 G5P       0.496400
     31 N7           7.9530     0.0580    -2.8860 nd         1 G5P      -0.617000
     32 C7           8.8710    -0.9400    -2.6930 cd         1 G5P       0.178800
     33 C6           9.9590    -1.3720    -3.5050 c          1 G5P       0.660000
     34 O6          10.3410    -0.9270    -4.5750 o          1 G5P      -0.636500
     35 N1          10.6140    -2.4610    -2.9140 ns         1 G5P      -0.527400
     36 C10         10.2840    -3.0530    -1.7290 cd         1 G5P       0.670800
     37 N2          11.0140    -4.1150    -1.3550 nv         1 G5P      -0.958800
     38 N3           9.2860    -2.6500    -0.9840 nc         1 G5P      -0.664100
     39 C9           8.6250    -1.6060    -1.5070 cc         1 G5P       0.048800
     40 O5F         -4.7970    -2.8460    -0.6200 os         1 G5P      -0.510200
     41 C5F         -5.9740    -3.5110    -0.2330 c3         1 G5P       0.198400
     42 C4F         -6.2450    -3.2360     1.2350 c5         1 G5P       0.134100
     43 O4F         -6.2800    -1.8290     1.4940 os         1 G5P      -0.335600
     44 C1F         -7.5800    -1.4100     1.7850 c5         1 G5P       0.277800
     45 C2F         -8.4950    -2.5590     1.3600 c5         1 G5P       0.035100
     46 O2F         -9.6900    -2.5080     2.0790 oh         1 G5P      -0.589800
     47 C3F         -7.6060    -3.7690     1.6610 c5         1 G5P       0.067100
     48 O3F         -7.5810    -4.0430     3.0380 oh         1 G5P      -0.592800
     49 N9A         -7.8460    -0.1680     1.1000 na         1 G5P      -0.263000
     50 C4A         -8.5050     0.9080     1.6190 ca         1 G5P       0.421800
     51 N3A         -9.0020     1.0640     2.8450 nb         1 G5P      -0.740000
     52 C2A         -9.5750     2.2450     2.9940 ca         1 G5P       0.653900
     53 N1A         -9.7000     3.2240     2.1010 nb         1 G5P      -0.871000
     54 C6A         -9.1920     3.0530     0.8750 ca         1 G5P       0.761200
     55 N6A         -9.3100     4.0340    -0.0220 nv         1 G5P      -0.971500
     56 C5A         -8.5520     1.8340     0.5890 ca         1 G5P      -0.193200
     57 N7A         -7.9350     1.3450    -0.5340 nc         1 G5P      -0.550100
     58 C8A         -7.5310     0.1540    -0.1950 cd         1 G5P       0.488700
     59 H5'1         5.7560     2.4460     1.8550 h1         1 G5P       0.001200
     60 H5'2         6.2220     2.0460     0.2040 h1         1 G5P       0.001200
     61 H4           5.3450     0.0770     2.3610 h1         1 G5P       0.086700
     62 H7           8.0270     0.9230     1.2090 h1         1 G5P       0.055700
     63 H9           8.5590     0.7720     3.3500 ho         1 G5P       0.379000
     64 H10          8.8190    -1.3520     1.2720 h1         1 G5P       0.043700
     65 H11          7.4520    -1.6500     3.3420 ho         1 G5P       0.406000
     66 H1           6.5730    -2.4410     0.1510 h2         1 G5P       0.107700
     67 H8           6.3090     0.6300    -1.6870 h5         1 G5P       0.177100
     68 HN1         11.3930    -2.8380    -3.4390 hn         1 G5P       0.289500
     69 HN21        10.8880    -4.4580    -0.4180 hn         1 G5P       0.420800
     70 HN22        11.9000    -4.3130    -1.7870 hn         1 G5P       0.420800
     71 H11X        -6.8320    -3.1960    -0.8380 h1         1 G5P      -0.005300
     72 H12         -5.8720    -4.5950    -0.3640 h1         1 G5P      -0.005300
     73 H14         -5.4440    -3.6710     1.8400 h1         1 G5P       0.093700
     74 H2          -7.7130    -1.2020     2.8530 h2         1 G5P       0.083700
     75 H15         -8.6710    -2.5010     0.2780 h1         1 G5P       0.078700
     76 H3         -10.3480    -3.0440     1.6240 ho         1 G5P       0.384000
     77 H16         -7.9020    -4.6500     1.0770 h1         1 G5P       0.037700
     78 H13         -8.4930    -4.0510     3.3540 ho         1 G5P       0.387000
     79 H6         -10.0050     2.4470     3.9690 h5         1 G5P       0.003100
     80 HN61        -8.9440     3.9350    -0.9530 hn         1 G5P       0.441300
     81 HN62        -9.7960     4.8820     0.2130 hn         1 G5P       0.441300
     82 H5          -6.9810    -0.5160    -0.8470 h5         1 G5P       0.176800
@<TRIPOS>BOND
     1     1     2 1   
     2     1     3 1   
     3     1     7 1   
     4     1    40 1   
     5     4     5 1   
     6     4     6 1   
     7     4     7 1   
     8     4    11 1   
     9     8     9 1   
    10     8    10 1   
    11     8    11 1   
    12     8    15 1   
    13    12    13 1   
    14    12    14 1   
    15    12    15 1   
    16    12    16 1   
    17    16    17 1   
    18    17    18 1   
    19    17    19 1   
    20    17    20 1   
    21    20    21 1   
    22    21    22 1   
    23    21    59 1   
    24    21    60 1   
    25    22    23 1   
    26    22    24 1   
    27    22    61 1   
    28    23    28 1   
    29    24    25 1   
    30    24    26 1   
    31    24    62 1   
    32    25    63 1   
    33    26    27 1   
    34    26    28 1   
    35    26    64 1   
    36    27    65 1   
    37    28    29 1   
    38    28    66 1   
    39    29    30 1   
    40    29    39 1   
    41    30    31 2   
    42    30    67 1   
    43    31    32 1   
    44    32    33 1   
    45    32    39 2   
    46    33    34 2   
    47    33    35 1   
    48    35    36 1   
    49    35    68 1   
    50    36    37 1   
    51    36    38 2   
    52    37    69 1   
    53    37    70 1   
    54    38    39 1   
    55    40    41 1   
    56    41    42 1   
    57    41    71 1   
    58    41    72 1   
    59    42    43 1   
    60    42    47 1   
    61    42    73 1   
    62    43    44 1   
    63    44    45 1   
    64    44    49 1   
    65    44    74 1   
    66    45    46 1   
    67    45    47 1   
    68    45    75 1   
    69    46    76 1   
    70    47    48 1   
    71    47    77 1   
    72    48    78 1   
    73    49    50 1   
    74    49    58 1   
    75    50    51 ar  
    76    50    56 ar  
    77    51    52 ar  
    78    52    53 ar  
    79    52    79 1   
    80    53    54 ar  
    81    54    55 1   
    82    54    56 ar  
    83    55    80 1   
    84    55    81 1   
    85    56    57 1   
    86    57    58 2   
    87    58    82 1   
@<TRIPOS>SUBSTRUCTURE
     1 G5P         1 TEMP              0 ****  ****    0 ROOT
