@<TRIPOS>MOLECULE
G5P
   82    87     1     0     0
SMALL
No Charge or Current Charge


@<TRIPOS>ATOM
      1 PE          -4.4980    -1.8360    -2.5410 p5         1 G5P       1.448800
      2 O1E         -5.5440    -0.7710    -2.5630 o          1 G5P      -0.871000
      3 O2E         -4.4250    -2.5780    -3.8360 o          1 G5P      -0.871000
      4 PD          -2.1780    -0.6700    -3.0670 p5         1 G5P       1.528800
      5 O1D         -1.4320    -1.7070    -3.8460 o          1 G5P      -0.883000
      6 O2D         -2.9060     0.3190    -3.9190 o          1 G5P      -0.883000
      7 O3D         -3.1060    -1.3500    -1.9900 os         1 G5P      -0.674800
      8 PG          -0.3650     1.1900    -2.5460 p5         1 G5P       1.530800
      9 O1G         -1.1340     2.4710    -2.4850 o          1 G5P      -0.896000
     10 O2G          0.2400     0.9150    -3.8850 o          1 G5P      -0.896000
     11 O3G         -1.2410     0.0020    -1.9940 os         1 G5P      -0.703800
     12 PB           1.5600     2.3620    -1.1500 p5         1 G5P       1.524800
     13 O1B          0.8330     3.2720    -0.2110 o          1 G5P      -0.889000
     14 O2B          2.0220     3.0340    -2.4030 o          1 G5P      -0.889000
     15 O3B          0.7250     1.0530    -1.4160 os         1 G5P      -0.695800
     16 O3A          2.7200     1.6050    -0.3980 os         1 G5P      -0.673800
     17 PA           4.0600     2.4220    -0.2690 p5         1 G5P       1.445800
     18 O1A          3.8780     3.8400     0.1640 o          1 G5P      -0.867000
     19 O2A          4.9590     2.3130    -1.4580 o          1 G5P      -0.867000
     20 O5           4.6770     1.5980     0.9780 os         1 G5P      -0.532400
     21 C5           5.4330     0.3840     0.8230 c3         1 G5P       0.232600
     22 C4           4.5710    -0.7840     0.2360 c5         1 G5P       0.152300
     23 O4           4.5190    -0.7450    -1.2120 os         1 G5P      -0.362000
     24 C3           5.1380    -2.2140     0.5850 c5         1 G5P       0.073300
     25 O3           4.1930    -3.0430     1.3000 oh         1 G5P      -0.705000
     26 C2           5.4620    -2.8530    -0.8130 c5         1 G5P       0.083300
     27 O2           4.3780    -3.7260    -1.1510 oh         1 G5P      -0.709000
     28 C1           5.5470    -1.5990    -1.7460 c5         1 G5P       0.318300
     29 N9           6.8050    -0.8430    -1.8860 na         1 G5P      -0.196500
     30 C8           7.0010     0.1440    -2.8370 cc         1 G5P       0.496400
     31 N7           8.2530     0.6020    -2.8180 nd         1 G5P      -0.617000
     32 C7           8.8870    -0.1000    -1.8030 cd         1 G5P       0.113500
     33 C6          10.2940    -0.0220    -1.2990 c          1 G5P       0.517500
     34 O6          11.1700     0.7200    -1.7270 o          1 G5P      -0.561000
     35 N1          10.5240    -0.8930    -0.2740 ns         1 G5P      -0.460400
     36 C10          9.5820    -1.7260     0.2140 cd         1 G5P       0.670800
     37 N2           9.9420    -2.5140     1.2140 nv         1 G5P      -1.069200
     38 N3           8.3380    -1.8390    -0.1860 nc         1 G5P      -0.664100
     39 C9           8.0100    -0.9910    -1.2260 cc         1 G5P       0.063400
     40 O5F         -4.8210    -2.9040    -1.3720 os         1 G5P      -0.533400
     41 C5F         -5.4080    -2.5370    -0.1110 c3         1 G5P       0.221600
     42 C4F         -4.4410    -1.6630     0.7570 c5         1 G5P       0.157300
     43 O4F         -4.7680    -0.2530     0.6420 os         1 G5P      -0.382000
     44 C1F         -5.7830     0.0880     1.6170 c5         1 G5P       0.330300
     45 C2F         -5.9070    -1.1590     2.5760 c5         1 G5P       0.058300
     46 O2F         -6.0210    -0.8280     3.9770 oh         1 G5P      -0.712000
     47 C3F         -4.5830    -1.9210     2.2900 c5         1 G5P       0.090300
     48 O3F         -3.5210    -1.3620     3.0690 oh         1 G5P      -0.715000
     49 N9A         -7.0070     0.5070     0.9350 na         1 G5P      -0.292300
     50 C4A         -8.2790     0.6260     1.4420 ca         1 G5P       0.093500
     51 N3A         -8.7770     0.3340     2.6620 nb         1 G5P      -0.214000
     52 C2A        -10.0990     0.5690     2.8370 ca         1 G5P       0.127900
     53 N1A        -10.9610     1.0650     1.9200 nb         1 G5P      -0.345000
     54 C6A        -10.4370     1.3530     0.7190 ca         1 G5P       0.432900
     55 N6A        -11.3090     1.8530    -0.1980 nv         1 G5P      -1.081900
     56 C5A         -9.0680     1.1380     0.4430 ca         1 G5P      -0.062600
     57 N7A         -8.3590     1.3760    -0.7280 nc         1 G5P      -0.550100
     58 C8A         -7.1120     0.9840    -0.3870 cd         1 G5P       0.488700
     59 H5'1         5.7920     0.0750     1.8130 h1         1 G5P       0.001200
     60 H5'2         6.3210     0.5660     0.2100 h1         1 G5P       0.001200
     61 H4           3.5490    -0.6760     0.6210 h1         1 G5P       0.086700
     62 H7           6.0620    -2.1200     1.1710 h1         1 G5P       0.055700
     63 H9           4.2040    -2.7610     2.2450 ho         1 G5P       0.478000
     64 H10          6.4000    -3.4220    -0.8000 h1         1 G5P       0.043700
     65 H11          3.9060    -3.7730    -0.2750 ho         1 G5P       0.505000
     66 H1           5.2840    -1.8950    -2.7700 h2         1 G5P       0.107700
     67 H8           6.2050     0.4730    -3.4980 h5         1 G5P       0.177100
     68 HN1         11.4560    -0.9070     0.1070 hn         1 G5P       0.289500
     69 HN21         9.1690    -2.9730     1.6790 hn         1 G5P       0.476000
     70 HN22        10.6970    -2.2010     1.8110 hn         1 G5P       0.476000
     71 H11X        -6.3600    -2.0140    -0.2640 h1         1 G5P      -0.005300
     72 H12         -5.6360    -3.4550     0.4440 h1         1 G5P      -0.005300
     73 H14         -3.4070    -1.8360     0.4340 h1         1 G5P       0.093700
     74 H2          -5.4420     0.9630     2.1840 h2         1 G5P       0.083700
     75 H15         -6.7600    -1.7800     2.2640 h1         1 G5P       0.078700
     76 H3          -6.9280    -0.4640     4.1180 ho         1 G5P       0.483000
     77 H16         -4.6850    -2.9930     2.5100 h1         1 G5P       0.037700
     78 H13         -3.9980    -0.9800     3.8470 ho         1 G5P       0.486000
     79 H6         -10.5100     0.3330     3.8170 h5         1 G5P       0.003100
     80 HN61       -10.9960     1.8710    -1.1650 hn         1 G5P       0.496500
     81 HN62       -12.3040     1.7130    -0.0400 hn         1 G5P       0.496500
     82 H5          -6.2400     1.0400    -1.0310 h5         1 G5P       0.176800
@<TRIPOS>BOND
     1     1     2 1   
     2     1     3 1   
     3     1     7 1   
     4     1    40 1   
     5     4     5 1   
     6     4     6 1   
     7     4     7 1   
     8     4    11 1   
     9     8     9 1   
    10     8    10 1   
    11     8    11 1   
    12     8    15 1   
    13    12    13 1   
    14    12    14 1   
    15    12    15 1   
    16    12    16 1   
    17    16    17 1   
    18    17    18 1   
    19    17    19 1   
    20    17    20 1   
    21    20    21 1   
    22    21    22 1   
    23    21    59 1   
    24    21    60 1   
    25    22    23 1   
    26    22    24 1   
    27    22    61 1   
    28    23    28 1   
    29    24    25 1   
    30    24    26 1   
    31    24    62 1   
    32    25    63 1   
    33    26    27 1   
    34    26    28 1   
    35    26    64 1   
    36    27    65 1   
    37    28    29 1   
    38    28    66 1   
    39    29    30 1   
    40    29    39 1   
    41    30    31 2   
    42    30    67 1   
    43    31    32 1   
    44    32    33 1   
    45    32    39 2   
    46    33    34 2   
    47    33    35 1   
    48    35    36 1   
    49    35    68 1   
    50    36    37 1   
    51    36    38 2   
    52    37    69 1   
    53    37    70 1   
    54    38    39 1   
    55    40    41 1   
    56    41    42 1   
    57    41    71 1   
    58    41    72 1   
    59    42    43 1   
    60    42    47 1   
    61    42    73 1   
    62    43    44 1   
    63    44    45 1   
    64    44    49 1   
    65    44    74 1   
    66    45    46 1   
    67    45    47 1   
    68    45    75 1   
    69    46    76 1   
    70    47    48 1   
    71    47    77 1   
    72    48    78 1   
    73    49    50 1   
    74    49    58 1   
    75    50    51 ar  
    76    50    56 ar  
    77    51    52 ar  
    78    52    53 ar  
    79    52    79 1   
    80    53    54 ar  
    81    54    55 1   
    82    54    56 ar  
    83    55    80 1   
    84    55    81 1   
    85    56    57 1   
    86    57    58 2   
    87    58    82 1   
@<TRIPOS>SUBSTRUCTURE
     1 G5P         1 TEMP              0 ****  ****    0 ROOT
