@<TRIPOS>MOLECULE
G5Q
   49    50     1     0     0
SMALL
No Charge or Current Charge


@<TRIPOS>ATOM
      1 N            1.7950     2.2920     1.2830 n8         1 G5Q      -0.952200
      2 CA           2.7340     1.5200     0.4030 c3         1 G5Q       0.111500
      3 C            2.8060    -0.0210     0.7180 c          1 G5Q       0.582100
      4 O            2.8550    -0.4490     1.8620 o          1 G5Q      -0.555100
      5 CD           4.1460     2.1630     0.4400 c3         1 G5Q      -0.208400
      6 OD1          4.0600     4.4670    -0.1430 o          1 G5Q      -0.728500
      7 OD2          4.4690     3.0630    -1.7230 o          1 G5Q      -0.728500
      8 C1          -2.6060    -1.1510     0.2130 c5         1 G5Q       0.335700
      9 C2          -3.6510     1.1050     0.3470 c          1 G5Q       0.624000
     10 C7          -2.7980    -1.8190    -1.1900 c5         1 G5Q       0.077300
     11 C3          -2.3550    -3.2610    -0.8210 c5         1 G5Q       0.106300
     12 C4          -2.4320     3.1450    -0.3470 c          1 G5Q       0.591200
     13 C8          -1.1000    -2.9670     0.0760 c5         1 G5Q       0.156300
     14 C5          -1.3110     2.2610    -0.6630 cc         1 G5Q      -0.331200
     15 C9           0.2260    -2.8820    -0.7280 c3         1 G5Q       0.206600
     16 C6          -1.3630     0.9030    -0.4820 cd         1 G5Q      -0.035400
     17 N1          -2.5260     0.3230     0.0130 n          1 G5Q      -0.314000
     18 N3          -3.5630     2.4960     0.1670 n          1 G5Q      -0.372400
     19 N3S          2.7570    -0.8330    -0.3740 ns         1 G5Q      -0.620300
     20 O1S          2.8330    -2.8950    -1.8250 o          1 G5Q      -0.555500
     21 O2          -4.1500    -1.8060    -1.6950 oh         1 G5Q      -0.692000
     22 O2S          3.8180    -2.9680     0.5310 o          1 G5Q      -0.555500
     23 O3          -3.4080    -3.9300    -0.1150 oh         1 G5Q      -0.702000
     24 O4          -1.3580    -1.6790     0.7100 os         1 G5Q      -0.436000
     25 O5           1.3150    -2.7900     0.2070 os         1 G5Q      -0.561700
     26 S            2.8040    -2.4920    -0.4160 s6         1 G5Q       1.438500
     27 H1           0.8630     1.8620     1.2520 hn         1 G5Q       0.389000
     28 H2           2.0820     2.1620     2.2600 hn         1 G5Q       0.389000
     29 H4           2.3560     1.5950    -0.6280 h1         1 G5Q       0.090700
     30 H5           4.3420     2.4940     1.4680 hc         1 G5Q       0.029700
     31 H6           4.8280     1.3710     0.1060 hc         1 G5Q       0.029700
     32 H8          -3.4260    -1.3980     0.9010 h2         1 G5Q       0.123700
     33 H9          -2.1100    -1.3860    -1.9300 h1         1 G5Q       0.050700
     34 H10         -2.0830    -3.8350    -1.7190 h1         1 G5Q       0.049700
     35 H11         -5.2300     2.9360     1.4290 h1         1 G5Q       0.055033
     36 H12         -4.4710     4.3650     0.7120 h1         1 G5Q       0.055033
     37 H13         -5.4750     3.2940    -0.3050 h1         1 G5Q       0.055033
     38 H14         -0.9820    -3.7390     0.8480 h1         1 G5Q       0.113700
     39 H15         -0.4290     2.7570    -1.0540 ha         1 G5Q       0.240000
     40 H16          0.3250    -3.7820    -1.3490 h1         1 G5Q       0.052200
     41 H17          0.1890    -2.0070    -1.3910 h1         1 G5Q       0.052200
     42 H18         -0.5510     0.2140    -0.7020 h4         1 G5Q       0.194000
     43 H19          2.7250    -0.4480    -1.3010 hn         1 G5Q       0.351500
     44 H20         -4.3390    -0.8930    -2.0200 ho         1 G5Q       0.510000
     45 H21         -4.2330    -3.5830    -0.5390 ho         1 G5Q       0.520000
     46 CG           4.2350     3.3300    -0.5530 c          1 G5Q       0.735000
     47 O6          -4.6760     0.5880     0.7720 o          1 G5Q      -0.563000
     48 C3U         -4.7510     3.3220     0.5200 c3         1 G5Q       0.085300
     49 O7          -2.3740     4.3530    -0.5250 o          1 G5Q      -0.488000
@<TRIPOS>BOND
     1     1     2 1   
     2     1    27 1   
     3     1    28 1   
     4     2     3 1   
     5     2     5 1   
     6     2    29 1   
     7     3     4 2   
     8     3    19 1   
     9     5    30 1   
    10     5    31 1   
    11     5    46 1   
    12     6    46 1   
    13     7    46 1   
    14     8    10 1   
    15     8    17 1   
    16     8    24 1   
    17     8    32 1   
    18     9    17 1   
    19     9    18 1   
    20     9    47 2   
    21    10    11 1   
    22    10    21 1   
    23    10    33 1   
    24    11    13 1   
    25    11    23 1   
    26    11    34 1   
    27    12    14 1   
    28    12    18 1   
    29    12    49 2   
    30    13    15 1   
    31    13    24 1   
    32    13    38 1   
    33    14    16 2   
    34    14    39 1   
    35    15    25 1   
    36    15    40 1   
    37    15    41 1   
    38    16    17 1   
    39    16    42 1   
    40    18    48 1   
    41    19    26 1   
    42    19    43 1   
    43    20    26 2   
    44    21    44 1   
    45    22    26 2   
    46    23    45 1   
    47    25    26 1   
    48    35    48 1   
    49    36    48 1   
    50    37    48 1   
@<TRIPOS>SUBSTRUCTURE
     1 G5Q         1 TEMP              0 ****  ****    0 ROOT
