@<TRIPOS>MOLECULE
G5Q
   49    50     1     0     0
SMALL
abcg2


@<TRIPOS>ATOM
      1 N            0.9180     2.1220     1.5060 n8         1 G5Q      -0.952200
      2 CA           1.8100     1.5270     0.5420 c3         1 G5Q       0.111500
      3 C            1.9450     0.0200     0.6940 c          1 G5Q       0.582100
      4 O            1.8550    -0.5750     1.7380 o          1 G5Q      -0.555100
      5 CD           3.2000     2.1500     0.6550 c3         1 G5Q      -0.208400
      6 OD1          3.8920     4.4140     0.8830 o          1 G5Q      -0.728500
      7 OD2          2.5570     3.8900    -0.8250 o          1 G5Q      -0.728500
      8 C1          -2.2680    -1.0600     0.0270 c5         1 G5Q       0.335700
      9 C2          -2.8560     1.2820     0.4200 c          1 G5Q       0.624000
     10 C7          -2.7210    -1.9170    -1.1500 c5         1 G5Q       0.077300
     11 C3          -2.2480    -3.2990    -0.6920 c5         1 G5Q       0.106300
     12 C4          -1.7390     3.0590    -0.8760 c          1 G5Q       0.591200
     13 C8          -0.9350    -2.9570     0.0160 c5         1 G5Q       0.156300
     14 C5          -1.0110     2.0170    -1.5580 cc         1 G5Q      -0.331200
     15 C9           0.2720    -3.1680    -0.8670 c3         1 G5Q       0.206600
     16 C6          -1.2150     0.7340    -1.2370 cd         1 G5Q      -0.035400
     17 N1          -2.1080     0.3480    -0.2790 n          1 G5Q      -0.314000
     18 N3          -2.6170     2.6040     0.1130 n          1 G5Q      -0.372400
     19 N3S          2.2280    -0.6350    -0.4960 ns         1 G5Q      -0.620300
     20 O1S          2.9200    -2.4800    -1.9800 o          1 G5Q      -0.555500
     21 O2          -4.0990    -1.7940    -1.3250 oh         1 G5Q      -0.692000
     22 O2S          3.7330    -2.4940     0.3920 o          1 G5Q      -0.555500
     23 O3          -3.1270    -3.8420     0.2560 oh         1 G5Q      -0.702000
     24 O4          -1.0220    -1.5860     0.4050 os         1 G5Q      -0.436000
     25 O5           1.4470    -3.0110    -0.0440 os         1 G5Q      -0.561700
     26 S            2.7090    -2.2220    -0.5770 s6         1 G5Q       1.438500
     27 H1          -0.0210     1.7650     1.3920 hn         1 G5Q       0.389000
     28 H2           1.1990     1.8740     2.4470 hn         1 G5Q       0.389000
     29 H4           1.4350     1.7580    -0.4580 h1         1 G5Q       0.090700
     30 H5           3.5660     2.0480     1.6800 hc         1 G5Q       0.029700
     31 H6           3.9080     1.6060     0.0190 hc         1 G5Q       0.029700
     32 H8          -2.9950    -1.1260     0.8380 h2         1 G5Q       0.123700
     33 H9          -2.1720    -1.6380    -2.0590 h1         1 G5Q       0.050700
     34 H10         -2.0970    -3.9810    -1.5390 h1         1 G5Q       0.049700
     35 H11         -3.2290     3.4520     1.9370 h1         1 G5Q       0.055033
     36 H12         -3.0970     4.5710     0.5760 h1         1 G5Q       0.055033
     37 H13         -4.4630     3.4520     0.6660 h1         1 G5Q       0.055033
     38 H14         -0.8340    -3.5830     0.9080 h1         1 G5Q       0.113700
     39 H15         -0.2960     2.2900    -2.3180 ha         1 G5Q       0.240000
     40 H16          0.2830    -4.1840    -1.2620 h1         1 G5Q       0.052200
     41 H17          0.2770    -2.4740    -1.7110 h1         1 G5Q       0.052200
     42 H18         -0.6640    -0.0550    -1.7280 h4         1 G5Q       0.194000
     43 H19          2.3300    -0.1060    -1.3540 hn         1 G5Q       0.351500
     44 H20         -4.3310    -2.0880    -2.2110 ho         1 G5Q       0.510000
     45 H21         -4.0260    -3.7480    -0.0830 ho         1 G5Q       0.520000
     46 CG           3.2060     3.6260     0.2030 c          1 G5Q       0.735000
     47 O6          -3.6690     0.9620     1.2590 o          1 G5Q      -0.563000
     48 C3U         -3.4010     3.5740     0.8700 c3         1 G5Q       0.085300
     49 O7          -1.6210     4.2440    -1.1170 o          1 G5Q      -0.488000
@<TRIPOS>BOND
     1     1     2 1   
     2     1    27 1   
     3     1    28 1   
     4     2     3 1   
     5     2     5 1   
     6     2    29 1   
     7     3     4 2   
     8     3    19 1   
     9     5    30 1   
    10     5    31 1   
    11     5    46 1   
    12     6    46 1   
    13     7    46 1   
    14     8    10 1   
    15     8    17 1   
    16     8    24 1   
    17     8    32 1   
    18     9    17 1   
    19     9    18 1   
    20     9    47 2   
    21    10    11 1   
    22    10    21 1   
    23    10    33 1   
    24    11    13 1   
    25    11    23 1   
    26    11    34 1   
    27    12    14 1   
    28    12    18 1   
    29    12    49 2   
    30    13    15 1   
    31    13    24 1   
    32    13    38 1   
    33    14    16 2   
    34    14    39 1   
    35    15    25 1   
    36    15    40 1   
    37    15    41 1   
    38    16    17 1   
    39    16    42 1   
    40    18    48 1   
    41    19    26 1   
    42    19    43 1   
    43    20    26 2   
    44    21    44 1   
    45    22    26 2   
    46    23    45 1   
    47    25    26 1   
    48    35    48 1   
    49    36    48 1   
    50    37    48 1   
@<TRIPOS>SUBSTRUCTURE
     1 G5Q         1 TEMP              0 ****  ****    0 ROOT
