@<TRIPOS>MOLECULE
G5R
   77    80     1     0     0
SMALL
No Charge or Current Charge


@<TRIPOS>ATOM
      1 C01         45.9620   -28.6690     0.7920 c3         1 G5R       0.144900
      2 C03         45.8160   -26.8870     2.5150 ca         1 G5R       0.130100
      3 C04         45.9860   -27.8280     3.5600 ca         1 G5R      -0.204000
      4 C05         46.0680   -27.4230     4.9090 ca         1 G5R       0.006000
      5 C07         47.1270   -29.4880     5.8710 c3         1 G5R       0.121000
      6 C08         48.5180   -29.1380     6.4680 c5         1 G5R      -0.087700
      7 C09         48.5360   -28.6780     7.9490 c5         1 G5R      -0.077900
      8 C10         50.0190   -28.2420     8.1420 c5         1 G5R      -0.078400
      9 C11         50.5010   -27.8060     6.7190 c5         1 G5R      -0.078400
     10 C12         49.2360   -27.9230     5.8260 c5         1 G5R      -0.077900
     11 C13         45.1400   -28.4240     7.0180 c          1 G5R       0.660100
     12 C15         44.4300   -29.5500     9.1590 c3         1 G5R       0.123000
     13 C16         43.1780   -30.3640     8.7810 c3         1 G5R      -0.126400
     14 C17         42.2330   -30.5890     9.9770 c3         1 G5R       0.075600
     15 C19         39.8320   -30.8620     9.1990 cc         1 G5R       0.394400
     16 C21         39.6330   -33.0090     9.2220 cd         1 G5R       0.231900
     17 C22         40.9180   -32.7530     9.6350 cc         1 G5R      -0.204300
     18 C23         41.9990   -33.7260    10.0300 c3         1 G5R      -0.014800
     19 C25         45.8380   -26.0680     5.2120 ca         1 G5R      -0.120000
     20 C26         45.6670   -25.1220     4.1920 ca         1 G5R      -0.089000
     21 C27         45.6530   -25.5080     2.8430 ca         1 G5R       0.068100
     22 C29         44.8750   -24.6350     0.6130 c3         1 G5R       0.162600
     23 C30         43.4080   -25.1280     0.7640 c3         1 G5R       0.138800
     24 C32         41.3470   -26.0060    -0.3140 c6         1 G5R       0.134800
     25 C33         40.5400   -26.1940    -1.6430 c6         1 G5R       0.155100
     26 C35         41.6260   -24.2730    -2.6090 c6         1 G5R       0.155100
     27 C36         42.4960   -24.0670    -1.3240 c6         1 G5R       0.134800
     28 N06         46.0990   -28.4080     5.9660 n          1 G5R      -0.265400
     29 N14         45.3220   -29.3590     8.0160 ns         1 G5R      -0.528900
     30 N18         41.0410   -31.3770     9.6200 na         1 G5R      -0.168500
     31 N20         38.9630   -31.8330     8.9530 nd         1 G5R      -0.669000
     32 N31         42.6620   -25.3180    -0.5110 n3         1 G5R      -0.719600
     33 O02         45.8220   -27.2950     1.1920 os         1 G5R      -0.326100
     34 O24         44.1890   -27.6550     7.0560 o          1 G5R      -0.627100
     35 O28         45.4730   -24.4810     1.9230 os         1 G5R      -0.351100
     36 O34         41.2570   -25.6610    -2.7830 os         1 G5R      -0.437000
     37 H011        45.9370   -28.7500    -0.3020 h1         1 G5R       0.041700
     38 H012        46.9170   -29.0820     1.1410 h1         1 G5R       0.041700
     39 H013        45.1420   -29.2780     1.1950 h1         1 G5R       0.041700
     40 H041        46.0540   -28.8850     3.3300 ha         1 G5R       0.120000
     41 H071        46.7580   -30.4110     6.3340 h1         1 G5R       0.045200
     42 H072        47.2880   -29.7420     4.8180 h1         1 G5R       0.045200
     43 H081        49.1250   -30.0440     6.3440 hc         1 G5R       0.050700
     44 H092        48.2500   -29.4760     8.6440 hc         1 G5R       0.046950
     45 H091        47.8560   -27.8350     8.1240 hc         1 G5R       0.046950
     46 H101        50.6290   -29.0720     8.5180 hc         1 G5R       0.041950
     47 H102        50.1050   -27.4300     8.8730 hc         1 G5R       0.041950
     48 H111        51.2960   -28.4710     6.3610 hc         1 G5R       0.041950
     49 H112        50.9100   -26.7890     6.7140 hc         1 G5R       0.041950
     50 H122        48.6330   -27.0090     5.8770 hc         1 G5R       0.046950
     51 H121        49.4860   -28.0900     4.7710 hc         1 G5R       0.046950
     52 H152        44.1320   -28.5690     9.5530 h1         1 G5R       0.051200
     53 H151        44.9840   -30.0760     9.9480 h1         1 G5R       0.051200
     54 H162        43.4890   -31.3340     8.3760 hc         1 G5R       0.064700
     55 H161        42.6320   -29.8430     7.9850 hc         1 G5R       0.064700
     56 H171        41.9050   -29.6180    10.3710 h1         1 G5R       0.058200
     57 H172        42.7730   -31.1070    10.7800 h1         1 G5R       0.058200
     58 H211        39.1560   -33.9740     9.1040 h4         1 G5R       0.035100
     59 H231        42.8860   -33.6090     9.3970 hc         1 G5R       0.043367
     60 H232        42.3020   -33.5730    11.0730 hc         1 G5R       0.043367
     61 H233        41.6510   -34.7610     9.9310 hc         1 G5R       0.043367
     62 H251        45.8260   -25.7370     6.2480 ha         1 G5R       0.127000
     63 H261        45.5270   -24.0750     4.4510 ha         1 G5R       0.126000
     64 H291        45.4490   -25.3140    -0.0260 h1         1 G5R       0.060700
     65 H292        44.8680   -23.6610     0.1100 h1         1 G5R       0.060700
     66 H301        42.8710   -24.4120     1.4020 h1         1 G5R       0.040700
     67 H302        43.4270   -26.0820     1.3070 h1         1 G5R       0.040700
     68 H322        40.7230   -25.4330     0.3870 h1         1 G5R       0.038700
     69 H321        41.5040   -26.9940     0.1420 h1         1 G5R       0.038700
     70 H331        39.5670   -25.6890    -1.5610 h1         1 G5R       0.044200
     71 H332        40.3500   -27.2630    -1.8140 h1         1 G5R       0.044200
     72 H352        42.1850   -23.9390    -3.4950 h1         1 G5R       0.044200
     73 H351        40.7130   -23.6650    -2.5400 h1         1 G5R       0.044200
     74 H362        43.4780   -23.6820    -1.6360 h1         1 G5R       0.038700
     75 H361        42.0290   -23.2780    -0.7150 h1         1 G5R       0.038700
     76 H141        46.1390   -29.9500     7.9430 hn         1 G5R       0.317500
     77 H191        39.6570   -29.7970     9.0950 h5         1 G5R       0.055100
@<TRIPOS>BOND
     1     1    33 1   
     2     1    37 1   
     3     1    38 1   
     4     1    39 1   
     5     2     3 ar  
     6     2    21 ar  
     7     2    33 1   
     8     3     4 ar  
     9     3    40 1   
    10     4    19 ar  
    11     4    28 1   
    12     5     6 1   
    13     5    28 1   
    14     5    41 1   
    15     5    42 1   
    16     6     7 1   
    17     6    10 1   
    18     6    43 1   
    19     7     8 1   
    20     7    44 1   
    21     7    45 1   
    22     8     9 1   
    23     8    46 1   
    24     8    47 1   
    25     9    10 1   
    26     9    48 1   
    27     9    49 1   
    28    10    50 1   
    29    10    51 1   
    30    11    28 1   
    31    11    29 1   
    32    11    34 2   
    33    12    13 1   
    34    12    29 1   
    35    12    52 1   
    36    12    53 1   
    37    13    14 1   
    38    13    54 1   
    39    13    55 1   
    40    14    30 1   
    41    14    56 1   
    42    14    57 1   
    43    15    30 1   
    44    15    31 2   
    45    15    77 1   
    46    16    17 2   
    47    16    31 1   
    48    16    58 1   
    49    17    18 1   
    50    17    30 1   
    51    18    59 1   
    52    18    60 1   
    53    18    61 1   
    54    19    20 ar  
    55    19    62 1   
    56    20    21 ar  
    57    20    63 1   
    58    21    35 1   
    59    22    23 1   
    60    22    35 1   
    61    22    64 1   
    62    22    65 1   
    63    23    32 1   
    64    23    66 1   
    65    23    67 1   
    66    24    25 1   
    67    24    32 1   
    68    24    68 1   
    69    24    69 1   
    70    25    36 1   
    71    25    70 1   
    72    25    71 1   
    73    26    27 1   
    74    26    36 1   
    75    26    72 1   
    76    26    73 1   
    77    27    32 1   
    78    27    74 1   
    79    27    75 1   
    80    29    76 1   
@<TRIPOS>SUBSTRUCTURE
     1 G5R         1 TEMP              0 ****  ****    0 ROOT
