@<TRIPOS>MOLECULE
G5R
   77    80     1     0     0
SMALL
bcc


@<TRIPOS>ATOM
      1 C01         46.1810   -30.1140     1.0680 c3         1 G5R       0.121700
      2 C03         46.0140   -28.0470     2.2120 ca         1 G5R       0.130100
      3 C04         46.1110   -28.6520     3.4600 ca         1 G5R      -0.222000
      4 C05         46.1110   -27.8850     4.6230 ca         1 G5R       0.098600
      5 C07         47.4540   -29.2870     6.1540 c3         1 G5R       0.121000
      6 C08         48.5650   -28.5360     6.8790 c5         1 G5R      -0.087700
      7 C09         48.2170   -27.9060     8.2270 c5         1 G5R      -0.077900
      8 C10         49.4060   -26.9810     8.5360 c5         1 G5R      -0.078400
      9 C11         50.0810   -26.6920     7.1720 c5         1 G5R      -0.078400
     10 C12         49.1840   -27.3600     6.1250 c5         1 G5R      -0.077900
     11 C13         45.0880   -28.6140     6.6450 c          1 G5R       0.794100
     12 C15         44.0400   -29.4510     8.6900 c3         1 G5R       0.123000
     13 C16         43.1990   -30.6480     8.2570 c3         1 G5R      -0.126400
     14 C17         42.0280   -30.8570     9.2080 c3         1 G5R       0.046300
     15 C19         40.0240   -31.8140     8.0780 cc         1 G5R       0.394400
     16 C21         40.3100   -33.8950     8.3790 cd         1 G5R       0.297200
     17 C22         41.3660   -33.2840     8.9990 cc         1 G5R      -0.218900
     18 C23         42.5140   -33.8400     9.7590 c3         1 G5R      -0.014800
     19 C25         46.0020   -26.5070     4.5410 ca         1 G5R      -0.138000
     20 C26         45.8790   -25.9010     3.2970 ca         1 G5R      -0.107000
     21 C27         45.8860   -26.6500     2.1330 ca         1 G5R       0.068100
     22 C29         44.5380   -26.0290     0.2940 c3         1 G5R       0.139400
     23 C30         43.6620   -24.9100     0.8420 c3         1 G5R       0.138800
     24 C32         41.3540   -24.2280     0.9440 c6         1 G5R       0.134800
     25 C33         40.1950   -23.7720     0.0500 c6         1 G5R       0.131900
     26 C35         41.1880   -24.5240    -1.9260 c6         1 G5R       0.131900
     27 C36         42.4690   -24.1990    -1.1590 c6         1 G5R       0.134800
     28 N06         46.2350   -28.5310     5.8840 n          1 G5R      -0.425000
     29 N14         45.1930   -29.2260     7.8490 ns         1 G5R      -0.595900
     30 N18         41.1610   -31.9420     8.7990 na         1 G5R      -0.189900
     31 N20         39.4790   -32.9710     7.8090 nd         1 G5R      -0.669000
     32 N31         42.4010   -24.8410     0.1380 n3         1 G5R      -0.719600
     33 O02         46.0300   -28.7090     1.0420 os         1 G5R      -0.302900
     34 O24         44.0250   -28.1490     6.2510 o          1 G5R      -0.627100
     35 O28         45.8220   -26.0470     0.9150 os         1 G5R      -0.327900
     36 O34         40.0630   -24.6090    -1.0720 os         1 G5R      -0.390600
     37 H011        46.1910   -30.4430     0.0310 h1         1 G5R       0.041700
     38 H012        47.1190   -30.4150     1.5430 h1         1 G5R       0.041700
     39 H013        45.3520   -30.6060     1.5840 h1         1 G5R       0.041700
     40 H041        46.1840   -29.7280     3.5480 ha         1 G5R       0.138000
     41 H071        47.2030   -30.2000     6.6980 h1         1 G5R       0.045200
     42 H072        47.8470   -29.6350     5.1970 h1         1 G5R       0.045200
     43 H081        49.3560   -29.2790     7.0460 hc         1 G5R       0.050700
     44 H092        48.0460   -28.6440     9.0140 hc         1 G5R       0.046950
     45 H091        47.3010   -27.3150     8.1320 hc         1 G5R       0.046950
     46 H101        50.1070   -27.4690     9.2140 hc         1 G5R       0.041950
     47 H102        49.0800   -26.0670     9.0330 hc         1 G5R       0.041950
     48 H111        51.0790   -27.1330     7.1450 hc         1 G5R       0.041950
     49 H112        50.2050   -25.6250     6.9870 hc         1 G5R       0.041950
     50 H122        48.3970   -26.6720     5.8080 hc         1 G5R       0.046950
     51 H121        49.7250   -27.6670     5.2280 hc         1 G5R       0.046950
     52 H152        43.4220   -28.5510     8.7180 h1         1 G5R       0.051200
     53 H151        44.4110   -29.6070     9.7030 h1         1 G5R       0.051200
     54 H162        43.8260   -31.5430     8.2310 hc         1 G5R       0.064700
     55 H161        42.8190   -30.4860     7.2470 hc         1 G5R       0.064700
     56 H171        41.4200   -29.9520     9.2600 h1         1 G5R       0.058200
     57 H172        42.3850   -31.0570    10.2200 h1         1 G5R       0.058200
     58 H211        40.1120   -34.9550     8.3240 h4         1 G5R       0.035100
     59 H231        43.4720   -33.6060     9.2930 hc         1 G5R       0.043367
     60 H232        42.5490   -33.4640    10.7840 hc         1 G5R       0.043367
     61 H233        42.4270   -34.9240     9.8090 hc         1 G5R       0.043367
     62 H251        46.0140   -25.9050     5.4400 ha         1 G5R       0.145000
     63 H261        45.7970   -24.8240     3.2240 ha         1 G5R       0.144000
     64 H291        44.0220   -26.9860     0.4140 h1         1 G5R       0.060700
     65 H292        44.7300   -25.8910    -0.7700 h1         1 G5R       0.060700
     66 H301        44.2110   -23.9540     0.8150 h1         1 G5R       0.040700
     67 H302        43.4490   -25.1160     1.8950 h1         1 G5R       0.040700
     68 H322        41.7170   -23.3490     1.5000 h1         1 G5R       0.038700
     69 H321        41.0100   -24.9540     1.6860 h1         1 G5R       0.038700
     70 H331        40.3390   -22.7280    -0.2570 h1         1 G5R       0.044200
     71 H332        39.2570   -23.8110     0.6040 h1         1 G5R       0.044200
     72 H352        41.2840   -25.4970    -2.4130 h1         1 G5R       0.044200
     73 H351        41.0290   -23.7720    -2.7090 h1         1 G5R       0.044200
     74 H362        43.3180   -24.5760    -1.7300 h1         1 G5R       0.038700
     75 H361        42.6170   -23.1100    -1.0720 h1         1 G5R       0.038700
     76 H141        46.0720   -29.5780     8.1810 hn         1 G5R       0.317500
     77 H191        39.6420   -30.8460     7.7870 h5         1 G5R       0.055100
@<TRIPOS>BOND
     1     1    33 1   
     2     1    37 1   
     3     1    38 1   
     4     1    39 1   
     5     2     3 ar  
     6     2    21 ar  
     7     2    33 1   
     8     3     4 ar  
     9     3    40 1   
    10     4    19 ar  
    11     4    28 1   
    12     5     6 1   
    13     5    28 1   
    14     5    41 1   
    15     5    42 1   
    16     6     7 1   
    17     6    10 1   
    18     6    43 1   
    19     7     8 1   
    20     7    44 1   
    21     7    45 1   
    22     8     9 1   
    23     8    46 1   
    24     8    47 1   
    25     9    10 1   
    26     9    48 1   
    27     9    49 1   
    28    10    50 1   
    29    10    51 1   
    30    11    28 1   
    31    11    29 1   
    32    11    34 2   
    33    12    13 1   
    34    12    29 1   
    35    12    52 1   
    36    12    53 1   
    37    13    14 1   
    38    13    54 1   
    39    13    55 1   
    40    14    30 1   
    41    14    56 1   
    42    14    57 1   
    43    15    30 1   
    44    15    31 2   
    45    15    77 1   
    46    16    17 2   
    47    16    31 1   
    48    16    58 1   
    49    17    18 1   
    50    17    30 1   
    51    18    59 1   
    52    18    60 1   
    53    18    61 1   
    54    19    20 ar  
    55    19    62 1   
    56    20    21 ar  
    57    20    63 1   
    58    21    35 1   
    59    22    23 1   
    60    22    35 1   
    61    22    64 1   
    62    22    65 1   
    63    23    32 1   
    64    23    66 1   
    65    23    67 1   
    66    24    25 1   
    67    24    32 1   
    68    24    68 1   
    69    24    69 1   
    70    25    36 1   
    71    25    70 1   
    72    25    71 1   
    73    26    27 1   
    74    26    36 1   
    75    26    72 1   
    76    26    73 1   
    77    27    32 1   
    78    27    74 1   
    79    27    75 1   
    80    29    76 1   
@<TRIPOS>SUBSTRUCTURE
     1 G5R         1 TEMP              0 ****  ****    0 ROOT
