@<TRIPOS>MOLECULE
G5T
   35    37     1     0     0
SMALL
No Charge or Current Charge


@<TRIPOS>ATOM
      1 C10         -0.4180     3.2190     0.2880 ca         1 G5T      -0.041000
      2 C15         -3.8840     0.5960     0.0200 c6         1 G5T       0.178300
      3 C02          3.5640    -1.4920    -0.7630 ca         1 G5T       0.128100
      4 C03          4.7490    -0.8760    -0.3370 ca         1 G5T      -0.197000
      5 C04          4.7020     0.4110     0.2210 ca         1 G5T      -0.078000
      6 C05          3.4730     1.0810     0.3490 ca         1 G5T      -0.132000
      7 C06          2.2550     0.4850    -0.0790 cp         1 G5T      -0.110500
      8 C07          2.3360    -0.8240    -0.6350 ca         1 G5T      -0.106000
      9 C08          0.9310     1.1990     0.0550 cp         1 G5T       0.456500
     10 C09          0.8360     2.6090     0.1640 ca         1 G5T      -0.205000
     11 C11         -1.5490     2.3940     0.2950 ca         1 G5T      -0.225000
     12 C12         -1.3860     1.0010     0.1730 ca         1 G5T       0.624900
     13 N13         -0.1780     0.4280     0.0530 nb         1 G5T      -0.757000
     14 N14         -2.4730     0.1000     0.1560 nh         1 G5T      -0.772300
     15 C16         -4.8720    -0.5070    -0.4620 c6         1 G5T       0.143100
     16 O17         -4.7500    -1.6990     0.3460 os         1 G5T      -0.444000
     17 C18         -3.4230    -2.2670     0.2860 c6         1 G5T       0.143100
     18 C19         -2.3590    -1.2550     0.8060 c6         1 G5T       0.178300
     19 H26         -0.5100     4.3000     0.3750 ha         1 G5T       0.114000
     20 H29         -4.2370     0.9880     0.9860 h1         1 G5T       0.056200
     21 H28         -3.9310     1.4210    -0.7060 h1         1 G5T       0.056200
     22 H20          4.5360    -3.0460    -1.3140 ho         1 G5T       0.463000
     23 H21          5.7040    -1.3860    -0.4320 ha         1 G5T       0.112000
     24 H22          5.6190     0.8900     0.5600 ha         1 G5T       0.112000
     25 H23          3.4740     2.0680     0.8030 ha         1 G5T       0.115000
     26 H24          1.4350    -1.3260    -0.9790 ha         1 G5T       0.146000
     27 H25          1.7270     3.2270     0.1380 ha         1 G5T       0.125000
     28 H27         -2.5320     2.8380     0.4010 ha         1 G5T       0.121000
     29 H31         -5.9040    -0.1350    -0.4020 h1         1 G5T       0.053450
     30 H30         -4.6640    -0.7610    -1.5120 h1         1 G5T       0.053450
     31 H32         -3.3940    -3.1820     0.8940 h1         1 G5T       0.053450
     32 H33         -3.1950    -2.5440    -0.7540 h1         1 G5T       0.053450
     33 H34         -1.3720    -1.7050     0.6310 h1         1 G5T       0.056200
     34 H35         -2.4760    -1.1530     1.8940 h1         1 G5T       0.056200
     35 O01          3.6030    -2.7420    -1.3050 oh         1 G5T      -0.534100
@<TRIPOS>BOND
     1     1    10 ar  
     2     1    11 ar  
     3     1    19 1   
     4     2    14 1   
     5     2    15 1   
     6     2    20 1   
     7     2    21 1   
     8     3     4 ar  
     9     3     8 ar  
    10     3    35 1   
    11     4     5 ar  
    12     4    23 1   
    13     5     6 ar  
    14     5    24 1   
    15     6     7 ar  
    16     6    25 1   
    17     7     8 ar  
    18     7     9 1   
    19     8    26 1   
    20     9    10 ar  
    21     9    13 ar  
    22    10    27 1   
    23    11    12 ar  
    24    11    28 1   
    25    12    13 ar  
    26    12    14 1   
    27    14    18 1   
    28    15    16 1   
    29    15    29 1   
    30    15    30 1   
    31    16    17 1   
    32    17    18 1   
    33    17    31 1   
    34    17    32 1   
    35    18    33 1   
    36    18    34 1   
    37    22    35 1   
@<TRIPOS>SUBSTRUCTURE
     1 G5T         1 TEMP              0 ****  ****    0 ROOT
