@<TRIPOS>MOLECULE
G5T
   35    37     1     0     0
SMALL
abcg2


@<TRIPOS>ATOM
      1 C10         -0.4470     3.1570     0.0490 ca         1 G5T      -0.041000
      2 C15         -3.7860     0.5300     0.4290 c6         1 G5T       0.178300
      3 C02          3.4610    -1.5280    -0.4660 ca         1 G5T       0.128100
      4 C03          4.6490    -0.8670    -0.1630 ca         1 G5T      -0.197000
      5 C04          4.6070     0.4710     0.2010 ca         1 G5T      -0.078000
      6 C05          3.4050     1.1570     0.2600 ca         1 G5T      -0.132000
      7 C06          2.2120     0.5010    -0.0500 cp         1 G5T      -0.110500
      8 C07          2.2510    -0.8450    -0.4050 ca         1 G5T      -0.106000
      9 C08          0.9070     1.2060    -0.0000 cp         1 G5T       0.456500
     10 C09          0.8210     2.5920    -0.0190 ca         1 G5T      -0.205000
     11 C11         -1.5690     2.3610     0.1170 ca         1 G5T      -0.225000
     12 C12         -1.3920     0.9620     0.0960 ca         1 G5T       0.624900
     13 N13         -0.1740     0.4330     0.0540 nb         1 G5T      -0.757000
     14 N14         -2.4470     0.0840     0.0970 nh         1 G5T      -0.772300
     15 C16         -4.8160    -0.4330    -0.1330 c6         1 G5T       0.143100
     16 O17         -4.5850    -1.7590     0.2780 os         1 G5T      -0.444000
     17 C18         -3.3090    -2.1830    -0.1460 c6         1 G5T       0.143100
     18 C19         -2.2070    -1.3130     0.4230 c6         1 G5T       0.178300
     19 H26         -0.5590     4.2340     0.0500 ha         1 G5T       0.114000
     20 H29         -3.9100     0.6270     1.5160 h1         1 G5T       0.056200
     21 H28         -3.9900     1.5040    -0.0120 h1         1 G5T       0.056200
     22 H20          4.3180    -3.1930    -0.8450 ho         1 G5T       0.463000
     23 H21          5.5970    -1.3910    -0.2090 ha         1 G5T       0.112000
     24 H22          5.5290     0.9820     0.4460 ha         1 G5T       0.112000
     25 H23          3.4050     2.1950     0.5650 ha         1 G5T       0.115000
     26 H24          1.3310    -1.3650    -0.6390 ha         1 G5T       0.146000
     27 H25          1.6960     3.2210    -0.0900 ha         1 G5T       0.125000
     28 H27         -2.5440     2.8180     0.1860 ha         1 G5T       0.121000
     29 H31         -5.8090    -0.1450     0.2160 h1         1 G5T       0.053450
     30 H30         -4.8090    -0.3640    -1.2300 h1         1 G5T       0.053450
     31 H32         -3.1730    -3.2110     0.1910 h1         1 G5T       0.053450
     32 H33         -3.2500    -2.1760    -1.2440 h1         1 G5T       0.053450
     33 H34         -1.2560    -1.6300     0.0030 h1         1 G5T       0.056200
     34 H35         -2.1460    -1.4490     1.5120 h1         1 G5T       0.056200
     35 O01          3.4260    -2.8280    -0.8230 oh         1 G5T      -0.534100
@<TRIPOS>BOND
     1     1    10 ar  
     2     1    11 ar  
     3     1    19 1   
     4     2    14 1   
     5     2    15 1   
     6     2    20 1   
     7     2    21 1   
     8     3     4 ar  
     9     3     8 ar  
    10     3    35 1   
    11     4     5 ar  
    12     4    23 1   
    13     5     6 ar  
    14     5    24 1   
    15     6     7 ar  
    16     6    25 1   
    17     7     8 ar  
    18     7     9 1   
    19     8    26 1   
    20     9    10 ar  
    21     9    13 ar  
    22    10    27 1   
    23    11    12 ar  
    24    11    28 1   
    25    12    13 ar  
    26    12    14 1   
    27    14    18 1   
    28    15    16 1   
    29    15    29 1   
    30    15    30 1   
    31    16    17 1   
    32    17    18 1   
    33    17    31 1   
    34    17    32 1   
    35    18    33 1   
    36    18    34 1   
    37    22    35 1   
@<TRIPOS>SUBSTRUCTURE
     1 G5T         1 TEMP              0 ****  ****    0 ROOT
