@<TRIPOS>MOLECULE
G5U
   78    81     1     0     0
SMALL
bcc


@<TRIPOS>ATOM
      1 C1          -3.2230   -10.2080    19.8780 c3         1 G5U      -0.087100
      2 C10         -9.9410   -12.3980    18.4000 c6         1 G5U       0.263500
      3 C11         -9.7400   -10.9950    18.9970 c6         1 G5U      -0.089900
      4 C12         -9.7420   -11.0630    20.5250 c6         1 G5U       0.183300
      5 C15        -12.3120   -12.8500    22.6400 c3         1 G5U      -0.107100
      6 C16        -10.1000   -11.9470    23.4160 c3         1 G5U      -0.107100
      7 C17        -10.2150   -13.4250    20.6630 c6         1 G5U       0.183300
      8 C18         -9.4050   -13.4540    19.3620 c6         1 G5U      -0.089900
      9 C19         -7.8450   -12.6040    15.2300 ca         1 G5U      -0.334600
     10 C2          -3.1670   -11.7050    19.5690 c3         1 G5U      -0.166400
     11 C20         -8.7740   -12.8420    14.1930 ca         1 G5U      -0.161000
     12 C21         -8.3590   -12.9770    12.8950 ca         1 G5U       0.098100
     13 C23        -10.5410   -13.3610    12.0700 c3         1 G5U       0.121700
     14 C24         -6.9690   -12.8700    12.5840 ca         1 G5U       0.167100
     15 C26         -5.3080   -12.9600    10.8850 c3         1 G5U       0.140400
     16 C27         -5.2440   -13.2180     9.3960 c3         1 G5U      -0.116400
     17 C28         -5.7310   -14.6240     9.0210 c3         1 G5U       0.182800
     18 C3          -3.7180   -12.0070    18.1910 c          1 G5U       0.681100
     19 C30         -4.1880   -15.1590     7.1720 c5         1 G5U       0.167800
     20 C31         -4.3720   -15.4980     5.6920 c5         1 G5U      -0.079900
     21 C32         -5.7270   -14.8560     5.3200 c5         1 G5U      -0.079900
     22 C33         -6.2500   -14.2680     6.6360 c5         1 G5U       0.167800
     23 C34         -6.0610   -12.6380    13.5870 ca         1 G5U      -0.277300
     24 C35         -6.4790   -12.5070    14.9280 ca         1 G5U       0.491600
     25 C6          -5.9660   -12.1970    17.0970 ca         1 G5U       0.824900
     26 C8          -8.1850   -12.4550    16.6210 ca         1 G5U       0.766200
     27 N13        -10.6790   -12.0780    20.9680 n3         1 G5U      -0.752600
     28 N29         -5.5490   -15.0320     7.6490 n3         1 G5U      -0.737600
     29 N36         -5.5270   -12.2960    15.8770 nb         1 G5U      -0.745000
     30 N5          -5.0880   -11.9990    18.1560 ns         1 G5U      -0.558400
     31 N7          -7.2370   -12.2570    17.5180 nb         1 G5U      -0.871000
     32 N9          -9.4560   -12.5210    17.0330 nu         1 G5U      -0.873900
     33 O25         -6.6700   -13.0170    11.2910 os         1 G5U      -0.304900
     34 O4          -3.0070   -12.2040    17.2290 o          1 G5U      -0.532100
     35 H1          -2.7760   -10.0090    20.8510 hc         1 G5U       0.041700
     36 H2          -2.6720    -9.6310    19.1340 hc         1 G5U       0.041700
     37 H3          -4.2480    -9.8390    19.9020 hc         1 G5U       0.041700
     38 H4         -11.0150   -12.5700    18.3080 h1         1 G5U       0.053700
     39 H5          -8.7980   -10.5640    18.6590 hc         1 G5U       0.056450
     40 H6         -10.5400   -10.3410    18.6450 hc         1 G5U       0.056450
     41 H7          -8.7190   -11.2350    20.8960 h1         1 G5U       0.032200
     42 H8         -10.0490   -10.0980    20.9330 h1         1 G5U       0.032200
     43 H9         -11.5950   -10.8740    22.3430 h1         1 G5U       0.052700
     44 H10        -12.7930   -12.5630    23.5750 hc         1 G5U       0.037033
     45 H11        -13.0680   -12.8380    21.8530 hc         1 G5U       0.037033
     46 H12        -11.9600   -13.8760    22.7590 hc         1 G5U       0.037033
     47 H13        -10.5400   -11.7320    24.3910 hc         1 G5U       0.037033
     48 H14         -9.6360   -12.9330    23.4780 hc         1 G5U       0.037033
     49 H15         -9.3100   -11.2140    23.2460 hc         1 G5U       0.037033
     50 H16        -11.0840   -14.0810    20.5590 h1         1 G5U       0.032200
     51 H17         -9.5950   -13.8550    21.4640 h1         1 G5U       0.032200
     52 H18         -9.4760   -14.4490    18.9180 hc         1 G5U       0.056450
     53 H19         -8.3500   -13.2720    19.5610 hc         1 G5U       0.056450
     54 H20         -2.1350   -12.0550    19.6010 hc         1 G5U       0.064700
     55 H21         -3.7230   -12.2580    20.3300 hc         1 G5U       0.064700
     56 H22         -9.8290   -12.9250    14.4160 ha         1 G5U       0.126000
     57 H23        -10.9960   -13.5660    11.1040 h1         1 G5U       0.039033
     58 H24        -10.7570   -14.1940    12.7450 h1         1 G5U       0.039033
     59 H25        -10.9850   -12.4500    12.4820 h1         1 G5U       0.039033
     60 H26         -4.7240   -13.7130    11.4270 h1         1 G5U       0.041200
     61 H27         -4.8880   -11.9770    11.1250 h1         1 G5U       0.041200
     62 H28         -4.1990   -13.0890     9.1010 hc         1 G5U       0.053200
     63 H29         -5.8120   -12.4500     8.8660 hc         1 G5U       0.053200
     64 H30         -6.7950   -14.7140     9.2580 h1         1 G5U       0.058700
     65 H31         -5.2140   -15.3520     9.6570 h1         1 G5U       0.058700
     66 H33         -3.6070   -14.2270     7.2720 h1         1 G5U       0.033200
     67 H34         -4.4090   -16.5790     5.5520 hc         1 G5U       0.044700
     68 H35         -3.5470   -15.1230     5.0870 hc         1 G5U       0.044700
     69 H36         -5.6240   -14.0850     4.5570 hc         1 G5U       0.044700
     70 H37         -6.4140   -15.6050     4.9270 hc         1 G5U       0.044700
     71 H38         -6.0200   -13.1920     6.6810 h1         1 G5U       0.033200
     72 H39         -7.3310   -14.3710     6.7530 h1         1 G5U       0.033200
     73 H40         -5.0020   -12.5550    13.3850 ha         1 G5U       0.164000
     74 H43         -5.5630   -11.8760    19.0380 hn         1 G5U       0.328500
     75 H44        -10.1660   -12.6580    16.3370 hn         1 G5U       0.439800
     76 O22         -9.1560   -13.2160    11.8400 os         1 G5U      -0.294900
     77 C14        -11.1740   -11.8860    22.3250 c3         1 G5U       0.196500
     78 H32         -3.6520   -15.9330     7.7270 h1         1 G5U       0.033200
@<TRIPOS>BOND
     1     1    10 1   
     2     1    35 1   
     3     1    36 1   
     4     1    37 1   
     5     2     3 1   
     6     2     8 1   
     7     2    32 1   
     8     2    38 1   
     9     3     4 1   
    10     3    39 1   
    11     3    40 1   
    12     4    27 1   
    13     4    41 1   
    14     4    42 1   
    15     5    44 1   
    16     5    45 1   
    17     5    46 1   
    18     5    77 1   
    19     6    47 1   
    20     6    48 1   
    21     6    49 1   
    22     6    77 1   
    23     7     8 1   
    24     7    27 1   
    25     7    50 1   
    26     7    51 1   
    27     8    52 1   
    28     8    53 1   
    29     9    11 ar  
    30     9    24 ar  
    31     9    26 ar  
    32    10    18 1   
    33    10    54 1   
    34    10    55 1   
    35    11    12 ar  
    36    11    56 1   
    37    12    14 ar  
    38    12    76 1   
    39    13    57 1   
    40    13    58 1   
    41    13    59 1   
    42    13    76 1   
    43    14    23 ar  
    44    14    33 1   
    45    15    16 1   
    46    15    33 1   
    47    15    60 1   
    48    15    61 1   
    49    16    17 1   
    50    16    62 1   
    51    16    63 1   
    52    17    28 1   
    53    17    64 1   
    54    17    65 1   
    55    18    30 1   
    56    18    34 2   
    57    19    20 1   
    58    19    28 1   
    59    19    66 1   
    60    19    78 1   
    61    20    21 1   
    62    20    67 1   
    63    20    68 1   
    64    21    22 1   
    65    21    69 1   
    66    21    70 1   
    67    22    28 1   
    68    22    71 1   
    69    22    72 1   
    70    23    24 ar  
    71    23    73 1   
    72    24    29 ar  
    73    25    29 ar  
    74    25    30 1   
    75    25    31 ar  
    76    26    31 ar  
    77    26    32 1   
    78    27    77 1   
    79    30    74 1   
    80    32    75 1   
    81    43    77 1   
@<TRIPOS>SUBSTRUCTURE
     1 G5U         1 TEMP              0 ****  ****    0 ROOT
