@<TRIPOS>MOLECULE
G5U
   78    81     1     0     0
SMALL
No Charge or Current Charge


@<TRIPOS>ATOM
      1 C1          -2.9420   -10.1640    20.2160 c3         1 G5U      -0.087100
      2 C10         -9.9570   -12.4930    18.4370 c6         1 G5U       0.263500
      3 C11         -9.7470   -11.0450    18.9580 c6         1 G5U      -0.089900
      4 C12         -9.9930   -10.9320    20.4860 c6         1 G5U       0.183300
      5 C15        -12.5750   -12.7870    22.6770 c3         1 G5U      -0.107100
      6 C16        -10.4200   -11.6900    23.4800 c3         1 G5U      -0.107100
      7 C17        -10.2060   -13.3760    20.8210 c6         1 G5U       0.183300
      8 C18         -9.4680   -13.5390    19.4650 c6         1 G5U      -0.089900
      9 C19         -7.6940   -12.7750    15.3010 ca         1 G5U      -0.204000
     10 C2          -2.9450   -11.5590    19.5530 c3         1 G5U      -0.166400
     11 C20         -8.6460   -12.9990    14.2760 ca         1 G5U      -0.143000
     12 C21         -8.2300   -13.1420    12.9320 ca         1 G5U       0.098100
     13 C23        -10.5530   -13.4630    12.1250 c3         1 G5U       0.144900
     14 C24         -6.8560   -13.0610    12.6140 ca         1 G5U       0.167100
     15 C26         -5.1010   -13.1550    10.8690 c3         1 G5U       0.163600
     16 C27         -5.0630   -13.3630     9.3430 c3         1 G5U      -0.116400
     17 C28         -5.5960   -14.7500     8.9040 c3         1 G5U       0.182800
     18 C3          -3.6760   -11.5480    18.2050 c          1 G5U       0.614100
     19 C30         -4.2080   -15.0410     6.8100 c5         1 G5U       0.167800
     20 C31         -4.5800   -15.3520     5.3360 c5         1 G5U      -0.079900
     21 C32         -6.0040   -14.7280     5.1650 c5         1 G5U      -0.079900
     22 C33         -6.3300   -14.1400     6.5650 c5         1 G5U       0.167800
     23 C34         -5.9120   -12.8370    13.6390 ca         1 G5U      -0.194000
     24 C35         -6.3180   -12.6930    14.9750 ca         1 G5U       0.098000
     25 C6          -5.8530   -12.3400    17.1920 ca         1 G5U       0.298900
     26 C8          -8.0520   -12.6270    16.6670 ca         1 G5U       0.437900
     27 N13        -10.8580   -12.0350    20.9880 n3         1 G5U      -0.752600
     28 N29         -5.5420   -15.0270     7.4450 n3         1 G5U      -0.737600
     29 N36         -5.3970   -12.4800    15.9350 nb         1 G5U      -0.219000
     30 N5          -4.9150   -12.1570    18.2220 ns         1 G5U      -0.324900
     31 N7          -7.1220   -12.4150    17.6110 nb         1 G5U      -0.345000
     32 N9          -9.3870   -12.7010    17.0820 nu         1 G5U      -0.929100
     33 O25         -6.4750   -13.2050    11.2900 os         1 G5U      -0.328100
     34 O4          -3.1770   -11.0510    17.2040 o          1 G5U      -0.532100
     35 H1          -2.4140   -10.1960    21.1770 hc         1 G5U       0.041700
     36 H2          -2.4410    -9.4290    19.5740 hc         1 G5U       0.041700
     37 H3          -3.9680    -9.8190    20.4000 hc         1 G5U       0.041700
     38 H4         -11.0470   -12.6380    18.3580 h1         1 G5U       0.053700
     39 H5          -8.7390   -10.6750    18.7400 hc         1 G5U       0.056450
     40 H6         -10.4380   -10.3780    18.4270 hc         1 G5U       0.056450
     41 H7          -9.0220   -10.9590    21.0020 h1         1 G5U       0.032200
     42 H8         -10.4420    -9.9510    20.7000 h1         1 G5U       0.032200
     43 H9         -11.9470   -10.8000    22.2870 h1         1 G5U       0.052700
     44 H10        -13.1080   -12.4680    23.5800 hc         1 G5U       0.037033
     45 H11        -13.3030   -12.8500    21.8600 hc         1 G5U       0.037033
     46 H12        -12.1700   -13.7900    22.8600 hc         1 G5U       0.037033
     47 H13        -10.9190   -11.4110    24.4160 hc         1 G5U       0.037033
     48 H14         -9.9150   -12.6480    23.6430 hc         1 G5U       0.037033
     49 H15         -9.6600   -10.9280    23.2720 hc         1 G5U       0.037033
     50 H16        -10.9710   -14.1630    20.8870 h1         1 G5U       0.032200
     51 H17         -9.4840   -13.5690    21.6270 h1         1 G5U       0.032200
     52 H18         -9.6180   -14.5560    19.0810 hc         1 G5U       0.056450
     53 H19         -8.3920   -13.4270    19.6430 hc         1 G5U       0.056450
     54 H20         -1.9050   -11.8630    19.3860 hc         1 G5U       0.064700
     55 H21         -3.4310   -12.2640    20.2390 hc         1 G5U       0.064700
     56 H22         -9.7010   -13.0610    14.5210 ha         1 G5U       0.108000
     57 H23        -11.0730   -13.6380    11.1750 h1         1 G5U       0.039033
     58 H24        -10.7850   -14.2980    12.7990 h1         1 G5U       0.039033
     59 H25        -10.9460   -12.5360    12.5610 h1         1 G5U       0.039033
     60 H26         -4.5120   -13.9410    11.3600 h1         1 G5U       0.041200
     61 H27         -4.6580   -12.1810    11.1120 h1         1 G5U       0.041200
     62 H28         -4.0250   -13.2450     9.0110 hc         1 G5U       0.053200
     63 H29         -5.6460   -12.5680     8.8640 hc         1 G5U       0.053200
     64 H30         -6.6350   -14.8440     9.2470 h1         1 G5U       0.058700
     65 H31         -5.0220   -15.5200     9.4380 h1         1 G5U       0.058700
     66 H33         -3.7120   -14.0630     6.8880 h1         1 G5U       0.033200
     67 H34         -4.6070   -16.4330     5.1600 hc         1 G5U       0.044700
     68 H35         -3.8500   -14.9290     4.6360 hc         1 G5U       0.044700
     69 H36         -6.0330   -13.9560     4.3880 hc         1 G5U       0.044700
     70 H37         -6.7330   -15.4960     4.8830 hc         1 G5U       0.044700
     71 H38         -5.9930   -13.0960     6.6360 h1         1 G5U       0.033200
     72 H39         -7.4050   -14.1700     6.7870 h1         1 G5U       0.033200
     73 H40         -4.8510   -12.7700    13.4150 ha         1 G5U       0.146000
     74 H43         -5.2210   -12.4870    19.1270 hn         1 G5U       0.162000
     75 H44        -10.0460   -12.8810    16.3300 hn         1 G5U       0.495000
     76 O22         -9.1350   -13.3630    11.9050 os         1 G5U      -0.318100
     77 C14        -11.4540   -11.7820    22.3300 c3         1 G5U       0.196500
     78 H32         -3.5420   -15.8020     7.2390 h1         1 G5U       0.033200
@<TRIPOS>BOND
     1     1    10 1   
     2     1    35 1   
     3     1    36 1   
     4     1    37 1   
     5     2     3 1   
     6     2     8 1   
     7     2    32 1   
     8     2    38 1   
     9     3     4 1   
    10     3    39 1   
    11     3    40 1   
    12     4    27 1   
    13     4    41 1   
    14     4    42 1   
    15     5    44 1   
    16     5    45 1   
    17     5    46 1   
    18     5    77 1   
    19     6    47 1   
    20     6    48 1   
    21     6    49 1   
    22     6    77 1   
    23     7     8 1   
    24     7    27 1   
    25     7    50 1   
    26     7    51 1   
    27     8    52 1   
    28     8    53 1   
    29     9    11 ar  
    30     9    24 ar  
    31     9    26 ar  
    32    10    18 1   
    33    10    54 1   
    34    10    55 1   
    35    11    12 ar  
    36    11    56 1   
    37    12    14 ar  
    38    12    76 1   
    39    13    57 1   
    40    13    58 1   
    41    13    59 1   
    42    13    76 1   
    43    14    23 ar  
    44    14    33 1   
    45    15    16 1   
    46    15    33 1   
    47    15    60 1   
    48    15    61 1   
    49    16    17 1   
    50    16    62 1   
    51    16    63 1   
    52    17    28 1   
    53    17    64 1   
    54    17    65 1   
    55    18    30 1   
    56    18    34 2   
    57    19    20 1   
    58    19    28 1   
    59    19    66 1   
    60    19    78 1   
    61    20    21 1   
    62    20    67 1   
    63    20    68 1   
    64    21    22 1   
    65    21    69 1   
    66    21    70 1   
    67    22    28 1   
    68    22    71 1   
    69    22    72 1   
    70    23    24 ar  
    71    23    73 1   
    72    24    29 ar  
    73    25    29 ar  
    74    25    30 1   
    75    25    31 ar  
    76    26    31 ar  
    77    26    32 1   
    78    27    77 1   
    79    30    74 1   
    80    32    75 1   
    81    43    77 1   
@<TRIPOS>SUBSTRUCTURE
     1 G5U         1 TEMP              0 ****  ****    0 ROOT
