@<TRIPOS>MOLECULE
G5V
   17    17     1     0     0
SMALL
No Charge or Current Charge


@<TRIPOS>ATOM
      1 OAK         -2.8580     0.1200    -0.2620 o          1 G5V      -0.708000
      2 CAJ         -1.8410     0.7860    -0.1590 c          1 G5V       0.738200
      3 OAL         -1.8800     1.9980    -0.2940 o          1 G5V      -0.708000
      4 CAF         -0.5420     0.1060     0.0950 cc         1 G5V      -0.305400
      5 CAG          0.6660     0.9160     0.3470 c          1 G5V       0.599500
      6 OAH          0.6840     2.1120     0.6280 o          1 G5V      -0.524100
      7 CAC          1.9060     0.1610     0.0110 cc         1 G5V      -0.076100
      8 OAD          3.0330     0.8850    -0.2300 oh         1 G5V      -0.505100
      9 CAB          1.8990    -1.2110     0.0840 cd         1 G5V      -0.124900
     10 OAA          0.7860    -1.8270     0.6040 os         1 G5V      -0.224200
     11 CAE         -0.4090    -1.2850     0.1680 cd         1 G5V       0.082900
     12 CAI         -1.4640    -2.3480    -0.0470 c3         1 G5V      -0.027900
     13 H2           3.7710     0.2550    -0.3840 ho         1 G5V       0.430000
     14 H3           2.7430    -1.8770    -0.0720 h4         1 G5V       0.196000
     15 H4          -1.9350    -2.2470    -1.0310 hc         1 G5V       0.052700
     16 H5          -1.0340    -3.3550     0.0010 hc         1 G5V       0.052700
     17 H6          -2.2460    -2.2920     0.7200 hc         1 G5V       0.052700
@<TRIPOS>BOND
     1     1     2 1   
     2     2     3 1   
     3     2     4 1   
     4     4     5 1   
     5     4    11 2   
     6     5     6 2   
     7     5     7 1   
     8     7     8 1   
     9     7     9 2   
    10     8    13 1   
    11     9    10 1   
    12     9    14 1   
    13    10    11 1   
    14    11    12 1   
    15    12    15 1   
    16    12    16 1   
    17    12    17 1   
@<TRIPOS>SUBSTRUCTURE
     1 G5V         1 TEMP              0 ****  ****    0 ROOT
