@<TRIPOS>MOLECULE
G5V
   17    17     1     0     0
SMALL
abcg2


@<TRIPOS>ATOM
      1 OAK         -2.5970     0.3740    -1.0360 o          1 G5V      -0.708000
      2 CAJ         -1.8680     0.7040    -0.0870 c          1 G5V       0.738200
      3 OAL         -2.1500     1.4430     0.8710 o          1 G5V      -0.708000
      4 CAF         -0.4960     0.0460    -0.0280 cc         1 G5V      -0.305400
      5 CAG          0.6860     0.8800    -0.0960 c          1 G5V       0.599500
      6 OAH          0.6700     2.0990    -0.2230 o          1 G5V      -0.524100
      7 CAC          1.9460     0.1400    -0.0460 cc         1 G5V      -0.076100
      8 OAD          3.0580     0.8870    -0.1420 oh         1 G5V      -0.505100
      9 CAB          1.9400    -1.1980     0.0890 cd         1 G5V      -0.124900
     10 OAA          0.8040    -1.9090     0.1640 os         1 G5V      -0.224200
     11 CAE         -0.3860    -1.2990     0.0880 cd         1 G5V       0.082900
     12 CAI         -1.5240    -2.2630     0.1420 c3         1 G5V      -0.027900
     13 H2           3.8470     0.3330    -0.1220 ho         1 G5V       0.430000
     14 H3           2.8250    -1.8190     0.1420 h4         1 G5V       0.196000
     15 H4          -2.0310    -2.3100    -0.8210 hc         1 G5V       0.052700
     16 H5          -1.1820    -3.2610     0.4040 hc         1 G5V       0.052700
     17 H6          -2.2630    -1.9510     0.8800 hc         1 G5V       0.052700
@<TRIPOS>BOND
     1     1     2 1   
     2     2     3 1   
     3     2     4 1   
     4     4     5 1   
     5     4    11 2   
     6     5     6 2   
     7     5     7 1   
     8     7     8 1   
     9     7     9 2   
    10     8    13 1   
    11     9    10 1   
    12     9    14 1   
    13    10    11 1   
    14    11    12 1   
    15    12    15 1   
    16    12    16 1   
    17    12    17 1   
@<TRIPOS>SUBSTRUCTURE
     1 G5V         1 TEMP              0 ****  ****    0 ROOT
