@<TRIPOS>MOLECULE
G5W
   39    40     1     0     0
SMALL
No Charge or Current Charge


@<TRIPOS>ATOM
      1 N           -6.4390    -0.6660    -1.1130 n8         1 G5W      -0.978200
      2 CA          -5.4570    -1.1770    -0.1020 c3         1 G5W       0.083500
      3 C           -4.1890    -0.2710     0.1300 c          1 G5W       0.613100
      4 O           -4.2770     0.8460     0.6270 o          1 G5W      -0.510100
      5 CB          -6.1970    -1.4650     1.2220 c3         1 G5W      -0.134100
      6 CAB         -0.3320     3.4010     1.4450 c3         1 G5W      -0.183100
      7 CAO          0.5940     2.3530     0.8170 c          1 G5W       0.503600
      8 CAR          2.0850     0.0710    -0.5370 ca         1 G5W       0.018000
      9 CAS         -1.7220    -0.3410    -0.2070 cc         1 G5W       0.577300
     10 CAT         -0.0580     1.0970     0.2750 cd         1 G5W       0.230500
     11 CAU          0.6420     0.0620    -0.3320 cc         1 G5W      -0.114000
     12 NAK         -1.4340     0.8340     0.3280 nd         1 G5W      -0.646000
     13 NAL         -3.0000    -0.8410    -0.2780 ns         1 G5W      -0.489400
     14 OAE          1.8000     2.5800     0.7890 o          1 G5W      -0.514100
     15 SAN         -0.3730    -1.2580    -0.8170 ss         1 G5W      -0.077400
     16 H1          -7.2690    -1.2730    -1.1220 hn         1 G5W       0.408000
     17 H2          -6.8100     0.2400    -0.7970 hn         1 G5W       0.408000
     18 H4          -5.0900    -2.1430    -0.4760 h1         1 G5W       0.065700
     19 H5          -7.0270    -2.1660     1.0640 hc         1 G5W       0.048367
     20 H6          -5.5130    -1.9150     1.9510 hc         1 G5W       0.048367
     21 H7          -6.6010    -0.5430     1.6580 hc         1 G5W       0.048367
     22 H8          -0.9200     2.9250     2.2380 hc         1 G5W       0.068367
     23 H9           0.2070     4.2810     1.8140 hc         1 G5W       0.068367
     24 H10         -1.1050     3.6740     0.7180 hc         1 G5W       0.068367
     25 H14         -3.0960    -1.7560    -0.6930 hn         1 G5W       0.329500
     26 C1           2.9260    -0.6360     0.3400 ca         1 G5W      -0.131000
     27 C2           4.3170    -0.6480     0.1420 ca         1 G5W       0.139100
     28 C3           4.8720     0.0510    -0.9520 ca         1 G5W      -0.186000
     29 C4           4.0320     0.7510    -1.8370 ca         1 G5W      -0.073000
     30 C5           2.6420     0.7580    -1.6310 ca         1 G5W      -0.103000
     31 O1           5.0890    -1.3560     1.0400 os         1 G5W      -0.343100
     32 C7           6.5220    -1.4320     0.9280 c3         1 G5W       0.149900
     33 H3           2.5000    -1.1770     1.1800 ha         1 G5W       0.129000
     34 H11          5.9420     0.0610    -1.1330 ha         1 G5W       0.117000
     35 H12          4.4580     1.2870    -2.6820 ha         1 G5W       0.115000
     36 H13          1.9970     1.2980    -2.3200 ha         1 G5W       0.123000
     37 H15          6.8150    -1.8910    -0.0250 h1         1 G5W       0.041033
     38 H16          6.9710    -0.4320     0.9900 h1         1 G5W       0.041033
     39 H17          6.9350    -2.0410     1.7410 h1         1 G5W       0.041033
@<TRIPOS>BOND
     1     1     2 1   
     2     1    16 1   
     3     1    17 1   
     4     2     3 1   
     5     2     5 1   
     6     2    18 1   
     7     3     4 2   
     8     3    13 1   
     9     5    19 1   
    10     5    20 1   
    11     5    21 1   
    12     6     7 1   
    13     6    22 1   
    14     6    23 1   
    15     6    24 1   
    16     7    10 1   
    17     7    14 2   
    18     8    11 1   
    19     8    26 ar  
    20     8    30 ar  
    21     9    12 2   
    22     9    13 1   
    23     9    15 1   
    24    10    11 2   
    25    10    12 1   
    26    11    15 1   
    27    13    25 1   
    28    26    27 ar  
    29    26    33 1   
    30    27    28 ar  
    31    27    31 1   
    32    28    29 ar  
    33    28    34 1   
    34    29    30 ar  
    35    29    35 1   
    36    30    36 1   
    37    31    32 1   
    38    32    37 1   
    39    32    38 1   
    40    32    39 1   
@<TRIPOS>SUBSTRUCTURE
     1 G5W         1 TEMP              0 ****  ****    0 ROOT
