@<TRIPOS>MOLECULE
G5W
   39    40     1     0     0
SMALL
bcc


@<TRIPOS>ATOM
      1 N           -6.4490    -0.6040    -0.8070 n8         1 G5W      -0.867800
      2 CA          -5.3050    -1.2150    -0.1640 c3         1 G5W       0.083500
      3 C           -4.1530    -0.2200    -0.1620 c          1 G5W       0.680100
      4 O           -4.3130     0.9760    -0.1120 o          1 G5W      -0.510100
      5 CB          -5.5490    -1.6770     1.2790 c3         1 G5W      -0.134100
      6 CAB         -0.8130     3.6890     0.9030 c3         1 G5W      -0.183100
      7 CAO          0.2740     2.6700     0.7190 c          1 G5W       0.503600
      8 CAR          2.1410     0.2470    -0.3090 ca         1 G5W       0.018000
      9 CAS         -1.6990    -0.1910    -0.0890 cc         1 G5W       0.577300
     10 CAT         -0.1520     1.3250     0.2570 cd         1 G5W       0.295800
     11 CAU          0.6850     0.3150    -0.1300 cc         1 G5W      -0.034400
     12 NAK         -1.4880     1.0250     0.2700 nd         1 G5W      -0.646000
     13 NAL         -2.9160    -0.8230    -0.1720 ns         1 G5W      -0.556400
     14 OAE          1.4410     2.9150     0.9340 o          1 G5W      -0.514100
     15 SAN         -0.2610    -1.0800    -0.4990 ss         1 G5W      -0.222300
     16 H1          -7.1920    -1.2890    -0.8700 hn         1 G5W       0.352800
     17 H2          -6.8080     0.1450    -0.2270 hn         1 G5W       0.352800
     18 H4          -5.0150    -2.0850    -0.7600 h1         1 G5W       0.065700
     19 H5          -6.3470    -2.4190     1.2960 hc         1 G5W       0.048367
     20 H6          -4.6640    -2.1310     1.7270 hc         1 G5W       0.048367
     21 H7          -5.8530    -0.8360     1.9040 hc         1 G5W       0.048367
     22 H8          -1.5910     3.3160     1.5690 hc         1 G5W       0.068367
     23 H9          -0.4020     4.6140     1.3020 hc         1 G5W       0.068367
     24 H10         -1.2970     3.8940    -0.0530 hc         1 G5W       0.068367
     25 H14         -2.8980    -1.8240    -0.2960 hn         1 G5W       0.329500
     26 C1           2.8630    -0.7460     0.3380 ca         1 G5W      -0.149000
     27 C2           4.2400    -0.8660     0.1400 ca         1 G5W       0.139100
     28 C3           4.8890     0.0160    -0.7200 ca         1 G5W      -0.204000
     29 C4           4.1530     1.0030    -1.3680 ca         1 G5W      -0.091000
     30 C5           2.7910     1.1290    -1.1750 ca         1 G5W      -0.121000
     31 O1           4.8470    -1.8570     0.8160 os         1 G5W      -0.319900
     32 C7           6.2390    -2.0410     0.6410 c3         1 G5W       0.126700
     33 H3           2.3670    -1.4330     1.0150 ha         1 G5W       0.147000
     34 H11          5.9530    -0.0510    -0.9010 ha         1 G5W       0.135000
     35 H12          4.6640     1.6790    -2.0420 ha         1 G5W       0.133000
     36 H13          2.2300     1.8920    -1.6970 ha         1 G5W       0.141000
     37 H15          6.4930    -2.2630    -0.3990 h1         1 G5W       0.041033
     38 H16          6.8100    -1.1670     0.9650 h1         1 G5W       0.041033
     39 H17          6.5180    -2.8900     1.2590 h1         1 G5W       0.041033
@<TRIPOS>BOND
     1     1     2 1   
     2     1    16 1   
     3     1    17 1   
     4     2     3 1   
     5     2     5 1   
     6     2    18 1   
     7     3     4 2   
     8     3    13 1   
     9     5    19 1   
    10     5    20 1   
    11     5    21 1   
    12     6     7 1   
    13     6    22 1   
    14     6    23 1   
    15     6    24 1   
    16     7    10 1   
    17     7    14 2   
    18     8    11 1   
    19     8    26 ar  
    20     8    30 ar  
    21     9    12 2   
    22     9    13 1   
    23     9    15 1   
    24    10    11 2   
    25    10    12 1   
    26    11    15 1   
    27    13    25 1   
    28    26    27 ar  
    29    26    33 1   
    30    27    28 ar  
    31    27    31 1   
    32    28    29 ar  
    33    28    34 1   
    34    29    30 ar  
    35    29    35 1   
    36    30    36 1   
    37    31    32 1   
    38    32    37 1   
    39    32    38 1   
    40    32    39 1   
@<TRIPOS>SUBSTRUCTURE
     1 G5W         1 TEMP              0 ****  ****    0 ROOT
