@<TRIPOS>MOLECULE
G5X
   49    52     1     0     0
SMALL
abcg2


@<TRIPOS>ATOM
      1 N12        -39.6050     9.3410   -14.2460 nv         1 G5X      -1.063900
      2 C15        -33.4700    11.4200   -14.3490 ca         1 G5X      -0.092000
      3 C21        -29.2590     8.3250   -15.7990 c6         1 G5X      -0.079400
      4 C22        -28.2230     7.5320   -16.5870 c6         1 G5X      -0.070400
      5 C24        -28.0860     9.3940   -18.2740 c6         1 G5X      -0.070400
      6 C26        -31.8760    12.8050   -13.1470 ca         1 G5X      -0.102000
      7 C28        -34.2190    13.1230   -12.7560 ca         1 G5X      -0.053800
      8 C4         -35.4890    13.5360   -12.2220 cc         1 G5X      -0.236400
      9 C5         -36.4380    12.7660   -12.8250 cd         1 G5X      -0.043100
     10 C7         -36.5960    11.0570   -14.5500 ca         1 G5X       0.271500
     11 C8         -36.1910    10.7420   -15.8410 ca         1 G5X      -0.302000
     12 C9         -37.0280     9.8670   -16.5160 ca         1 G5X       0.168900
     13 C11        -38.4520     9.7790   -14.7700 ca         1 G5X       0.412900
     14 C14        -34.4840    12.1080   -13.6980 ca         1 G5X      -0.043200
     15 C16        -32.1550    11.7850   -14.0760 ca         1 G5X       0.037000
     16 C18        -30.1790    10.5440   -15.2920 c1         1 G5X      -0.152100
     17 C19        -29.0850     9.8420   -15.9830 c6         1 G5X       0.274100
     18 C23        -28.2600     7.8930   -18.0670 c6         1 G5X      -0.074400
     19 C25        -29.1170    10.1880   -17.4780 c6         1 G5X      -0.079400
     20 C27        -32.8900    13.4600   -12.4830 ca         1 G5X      -0.081000
     21 N1         -34.9440    15.5670   -11.0750 nt         1 G5X      -0.597000
     22 N6         -35.8590    11.9240   -13.7340 na         1 G5X      -0.106200
     23 N10        -38.1420     9.3740   -16.0090 nb         1 G5X      -0.252000
     24 N13        -37.7070    10.5940   -14.0160 nb         1 G5X      -0.285000
     25 O3         -36.8700    14.4980   -10.5780 o          1 G5X      -0.611100
     26 O20        -27.8380    10.2850   -15.4860 oh         1 G5X      -0.646000
     27 H1         -40.1350     8.6370   -14.7270 hn         1 G5X       0.508000
     28 H2         -39.8230     9.5260   -13.2820 hn         1 G5X       0.508000
     29 H3         -33.6680    10.6100   -15.0360 ha         1 G5X       0.129000
     30 H5         -29.2090     8.0790   -14.7330 hc         1 G5X       0.050950
     31 H6         -28.4120     6.4640   -16.4520 hc         1 G5X       0.045450
     32 H7         -27.2240     7.7200   -16.1860 hc         1 G5X       0.045450
     33 H8         -27.0770     9.6940   -17.9800 hc         1 G5X       0.045450
     34 H9         -28.1850     9.6450   -19.3330 hc         1 G5X       0.045450
     35 H10        -30.8460    13.0630   -12.9430 ha         1 G5X       0.123000
     36 H11        -37.5080    12.7830   -12.7010 h4         1 G5X       0.248000
     37 H12        -35.3210    11.1640   -16.3170 ha         1 G5X       0.149000
     38 H13        -36.7820     9.5640   -17.5280 h4         1 G5X       0.026100
     39 H14        -29.2210     7.5800   -18.4920 hc         1 G5X       0.038700
     40 H15        -27.4870     7.3450   -18.6100 hc         1 G5X       0.038700
     41 H16        -28.9630    11.2630   -17.6030 hc         1 G5X       0.050950
     42 H17        -30.1190     9.9670   -17.8550 hc         1 G5X       0.050950
     43 H18        -32.6420    14.2110   -11.7450 ha         1 G5X       0.121000
     44 H19        -35.1730    16.3330   -10.4620 hn         1 G5X       0.308500
     45 H20        -34.2380    15.7510   -11.7670 hn         1 G5X       0.308500
     46 H21        -27.7300     9.9600   -14.5850 ho         1 G5X       0.446000
     47 C17        -31.0860    11.1090   -14.7340 cg         1 G5X      -0.107000
     48 C2         -35.8340    14.5670   -11.2250 c          1 G5X       0.644300
     49 H4         -30.2640     8.0510   -16.1330 hc         1 G5X       0.050950
@<TRIPOS>BOND
     1     1    13 1   
     2     1    27 1   
     3     1    28 1   
     4     2    14 ar  
     5     2    15 ar  
     6     2    29 1   
     7     3     4 1   
     8     3    17 1   
     9     3    30 1   
    10     3    49 1   
    11     4    18 1   
    12     4    31 1   
    13     4    32 1   
    14     5    18 1   
    15     5    19 1   
    16     5    33 1   
    17     5    34 1   
    18     6    15 ar  
    19     6    20 ar  
    20     6    35 1   
    21     7     8 1   
    22     7    14 ar  
    23     7    20 ar  
    24     8     9 2   
    25     8    48 1   
    26     9    22 1   
    27     9    36 1   
    28    10    11 ar  
    29    10    22 1   
    30    10    24 ar  
    31    11    12 ar  
    32    11    37 1   
    33    12    23 ar  
    34    12    38 1   
    35    13    23 ar  
    36    13    24 ar  
    37    14    22 1   
    38    15    47 1   
    39    16    17 1   
    40    16    47 3   
    41    17    19 1   
    42    17    26 1   
    43    18    39 1   
    44    18    40 1   
    45    19    41 1   
    46    19    42 1   
    47    20    43 1   
    48    21    44 1   
    49    21    45 1   
    50    21    48 1   
    51    25    48 2   
    52    26    46 1   
@<TRIPOS>SUBSTRUCTURE
     1 G5X         1 TEMP              0 ****  ****    0 ROOT
