@<TRIPOS>MOLECULE
G5X
   49    52     1     0     0
SMALL
No Charge or Current Charge


@<TRIPOS>ATOM
      1 N12        -38.8690     8.2440   -14.2310 nv         1 G5X      -1.063900
      2 C15        -33.4820    11.2180   -13.9600 ca         1 G5X      -0.092000
      3 C21        -29.7350     8.1630   -16.2310 c6         1 G5X      -0.079400
      4 C22        -28.7000     7.3250   -17.0280 c6         1 G5X      -0.070400
      5 C24        -27.6490     9.4720   -17.9260 c6         1 G5X      -0.070400
      6 C26        -31.9250    13.0530   -13.5310 ca         1 G5X      -0.102000
      7 C28        -34.2390    13.2370   -12.8430 ca         1 G5X      -0.053800
      8 C4         -35.5030    13.7320   -12.3250 cc         1 G5X      -0.236400
      9 C5         -36.4580    12.7490   -12.5810 cd         1 G5X      -0.043100
     10 C7         -36.6080    10.9260   -14.0490 ca         1 G5X       0.271500
     11 C8         -36.5990    11.3320   -15.4010 ca         1 G5X      -0.302000
     12 C9         -37.3960    10.6320   -16.3200 ca         1 G5X       0.168900
     13 C11        -38.1040     9.2860   -14.6330 ca         1 G5X       0.412900
     14 C14        -34.4860    11.9860   -13.3530 ca         1 G5X      -0.043200
     15 C16        -32.1860    11.7630   -14.0480 ca         1 G5X       0.037000
     16 C18        -30.2490    10.3670   -15.1950 c1         1 G5X      -0.152100
     17 C19        -29.1940     9.5750   -15.8560 c6         1 G5X       0.274100
     18 C23        -28.2210     8.0810   -18.2910 c6         1 G5X      -0.074400
     19 C25        -28.6830    10.3130   -17.1300 c6         1 G5X      -0.079400
     20 C27        -32.9530    13.8060   -12.9230 ca         1 G5X      -0.081000
     21 N1         -34.8620    15.9050   -11.4820 nt         1 G5X      -0.597000
     22 N6         -35.8090    11.6350   -13.1530 na         1 G5X      -0.106200
     23 N10        -38.1590     9.5950   -15.9340 nb         1 G5X      -0.252000
     24 N13        -37.3820     9.8840   -13.6770 nb         1 G5X      -0.285000
     25 O3         -36.9900    15.3080   -11.3360 o          1 G5X      -0.611100
     26 O20        -28.1380     9.4580   -14.9040 oh         1 G5X      -0.646000
     27 H1         -39.2440     7.6210   -14.9430 hn         1 G5X       0.508000
     28 H2         -38.6860     7.8320   -13.3190 hn         1 G5X       0.508000
     29 H3         -33.7000    10.2260   -14.3500 ha         1 G5X       0.129000
     30 H5         -30.0320     7.6160   -15.3250 hc         1 G5X       0.050950
     31 H6         -29.1450     6.3630   -17.3170 hc         1 G5X       0.045450
     32 H7         -27.8380     7.0870   -16.3890 hc         1 G5X       0.045450
     33 H8         -26.7300     9.3520   -17.3360 hc         1 G5X       0.045450
     34 H9         -27.3610    10.0070   -18.8410 hc         1 G5X       0.045450
     35 H10        -30.9250    13.4750   -13.6030 ha         1 G5X       0.123000
     36 H11        -37.5310    12.7680   -12.4050 h4         1 G5X       0.248000
     37 H12        -35.9900    12.1700   -15.7300 ha         1 G5X       0.149000
     38 H13        -37.4240    10.9040   -17.3740 h4         1 G5X       0.026100
     39 H14        -29.0580     8.1970   -18.9930 hc         1 G5X       0.038700
     40 H15        -27.4560     7.4880   -18.8130 hc         1 G5X       0.038700
     41 H16        -28.2360    11.2780   -16.8530 hc         1 G5X       0.050950
     42 H17        -29.5330    10.5460   -17.7860 hc         1 G5X       0.050950
     43 H18        -32.7290    14.7960   -12.5430 ha         1 G5X       0.121000
     44 H19        -35.0710    16.7890   -11.0460 hn         1 G5X       0.308500
     45 H20        -33.9230    15.6720   -11.7520 hn         1 G5X       0.308500
     46 H21        -28.5780     9.3040   -14.0420 ho         1 G5X       0.446000
     47 C17        -31.1340    11.0100   -14.6650 cg         1 G5X      -0.107000
     48 C2         -35.8570    15.0220   -11.6840 c          1 G5X       0.644300
     49 H4         -30.6480     8.2680   -16.8350 hc         1 G5X       0.050950
@<TRIPOS>BOND
     1     1    13 1   
     2     1    27 1   
     3     1    28 1   
     4     2    14 ar  
     5     2    15 ar  
     6     2    29 1   
     7     3     4 1   
     8     3    17 1   
     9     3    30 1   
    10     3    49 1   
    11     4    18 1   
    12     4    31 1   
    13     4    32 1   
    14     5    18 1   
    15     5    19 1   
    16     5    33 1   
    17     5    34 1   
    18     6    15 ar  
    19     6    20 ar  
    20     6    35 1   
    21     7     8 1   
    22     7    14 ar  
    23     7    20 ar  
    24     8     9 2   
    25     8    48 1   
    26     9    22 1   
    27     9    36 1   
    28    10    11 ar  
    29    10    22 1   
    30    10    24 ar  
    31    11    12 ar  
    32    11    37 1   
    33    12    23 ar  
    34    12    38 1   
    35    13    23 ar  
    36    13    24 ar  
    37    14    22 1   
    38    15    47 1   
    39    16    17 1   
    40    16    47 3   
    41    17    19 1   
    42    17    26 1   
    43    18    39 1   
    44    18    40 1   
    45    19    41 1   
    46    19    42 1   
    47    20    43 1   
    48    21    44 1   
    49    21    45 1   
    50    21    48 1   
    51    25    48 2   
    52    26    46 1   
@<TRIPOS>SUBSTRUCTURE
     1 G5X         1 TEMP              0 ****  ****    0 ROOT
