@<TRIPOS>MOLECULE
G5Y
   14    14     1     0     0
SMALL
No Charge or Current Charge


@<TRIPOS>ATOM
      1 OAI          2.4510    -1.1730     0.0350 o          1 G5Y      -0.676500
      2 CAH          2.0330    -0.0210     0.0290 c          1 G5Y       0.735200
      3 OAK          2.8030     0.9330     0.0190 o          1 G5Y      -0.676500
      4 CAG          0.5520     0.2690     0.0320 cc         1 G5Y      -0.009100
      5 OAC          0.1840     1.6200     0.0250 os         1 G5Y      -0.142200
      6 CAB         -1.1490     2.0100     0.0270 cc         1 G5Y       0.026100
      7 CAA         -2.1410     1.0560     0.0370 cd         1 G5Y      -0.434200
      8 CAE         -1.8790    -0.3610     0.0450 c          1 G5Y       0.537500
      9 OAD         -2.7740    -1.1980     0.0540 o          1 G5Y      -0.640100
     10 CAF         -0.4480    -0.7050     0.0420 cd         1 G5Y      -0.085100
     11 OAJ         -0.2370    -2.0530     0.0500 oh         1 G5Y      -0.485100
     12 H2          -1.2810     3.0880     0.0200 h4         1 G5Y       0.204000
     13 H3          -3.1900     1.3290     0.0390 ha         1 G5Y       0.188000
     14 H4          -1.1310    -2.4690     0.0570 ho         1 G5Y       0.457000
@<TRIPOS>BOND
     1     1     2 1   
     2     2     3 1   
     3     2     4 1   
     4     4     5 1   
     5     4    10 2   
     6     5     6 1   
     7     6     7 2   
     8     6    12 1   
     9     7     8 1   
    10     7    13 1   
    11     8     9 2   
    12     8    10 1   
    13    10    11 1   
    14    11    14 1   
@<TRIPOS>SUBSTRUCTURE
     1 G5Y         1 TEMP              0 ****  ****    0 ROOT
