@<TRIPOS>MOLECULE
G5Y
   14    14     1     0     0
SMALL
bcc


@<TRIPOS>ATOM
      1 OAI          2.3940    -1.1680     0.0280 o          1 G5Y      -0.781800
      2 CAH          2.0170     0.0130     0.0270 c          1 G5Y       0.945800
      3 OAK          2.7030     1.0460     0.0200 o          1 G5Y      -0.781800
      4 CAG          0.5110     0.2290     0.0350 cc         1 G5Y      -0.009100
      5 OAC          0.1640     1.5390     0.0280 os         1 G5Y      -0.142200
      6 CAB         -1.0970     1.9240     0.0280 cc         1 G5Y       0.076100
      7 CAA         -2.1360     1.0660     0.0350 cd         1 G5Y      -0.384200
      8 CAE         -1.8810    -0.3430     0.0450 c          1 G5Y       0.537500
      9 OAD         -2.7350    -1.2330     0.0520 o          1 G5Y      -0.640100
     10 CAF         -0.4640    -0.7150     0.0440 cd         1 G5Y      -0.085100
     11 OAJ         -0.2290    -2.0280     0.0540 oh         1 G5Y      -0.446100
     12 H2          -1.2030     3.0000     0.0210 h4         1 G5Y       0.154000
     13 H3          -3.1470     1.4460     0.0350 ha         1 G5Y       0.138000
     14 H4          -1.1050    -2.4520     0.0590 ho         1 G5Y       0.418000
@<TRIPOS>BOND
     1     1     2 1   
     2     2     3 1   
     3     2     4 1   
     4     4     5 1   
     5     4    10 2   
     6     5     6 1   
     7     6     7 2   
     8     6    12 1   
     9     7     8 1   
    10     7    13 1   
    11     8     9 2   
    12     8    10 1   
    13    10    11 1   
    14    11    14 1   
@<TRIPOS>SUBSTRUCTURE
     1 G5Y         1 TEMP              0 ****  ****    0 ROOT
