@<TRIPOS>MOLECULE
G5Z
   34    35     1     0     0
SMALL
No Charge or Current Charge


@<TRIPOS>ATOM
      1 N           -5.8010    -0.4750    -1.2670 n8         1 G5Z      -0.975200
      2 CA          -4.9450    -0.8200    -0.0860 c3         1 G5Z       0.082500
      3 C           -3.6030    -0.0030     0.0410 c          1 G5Z       0.612100
      4 O           -3.6020     1.2020     0.2590 o          1 G5Z      -0.505100
      5 CB          -5.7930    -0.7200     1.2000 c3         1 G5Z      -0.136100
      6 CAA          0.5260     3.5080     0.8400 c3         1 G5Z      -0.182100
      7 CAN          1.3740     2.2690     0.5370 c          1 G5Z       0.503600
      8 CAP          2.7050    -0.3980    -0.1690 ca         1 G5Z      -0.073000
      9 CAQ         -1.1430    -0.3720    -0.0580 cc         1 G5Z       0.585300
     10 CAR          0.6320     0.9850     0.2240 cd         1 G5Z       0.235500
     11 CAS          1.2560    -0.2200    -0.0820 cc         1 G5Z      -0.116000
     12 NAK         -0.7640     0.8640     0.2190 nd         1 G5Z      -0.645000
     13 NAL         -2.4600    -0.7580    -0.1230 ns         1 G5Z      -0.489400
     14 OAD          2.5960     2.3730     0.5670 o          1 G5Z      -0.515100
     15 SAM          0.1360    -1.5230    -0.3220 ss         1 G5Z      -0.087400
     16 H1          -6.6890    -0.9890    -1.2080 hn         1 G5Z       0.408000
     17 H2          -6.0910     0.5100    -1.1980 hn         1 G5Z       0.408000
     18 H4          -4.6610    -1.8760    -0.1960 h1         1 G5Z       0.069700
     19 H5          -6.6820    -1.3590     1.1360 hc         1 G5Z       0.047367
     20 H6          -5.2080    -1.0450     2.0690 hc         1 G5Z       0.047367
     21 H7          -6.1210     0.3120     1.3780 hc         1 G5Z       0.047367
     22 H8          -0.1650     3.6790     0.0060 hc         1 G5Z       0.069700
     23 H9          -0.1590     3.2770     1.6630 hc         1 G5Z       0.069700
     24 H10          1.1300     4.3970     1.0550 hc         1 G5Z       0.069700
     25 H14         -2.6260    -1.7330    -0.3240 hn         1 G5Z       0.329500
     26 C1           3.3810    -1.1710     0.7910 ca         1 G5Z      -0.055000
     27 C2           4.7680    -1.3430     0.6530 ca         1 G5Z      -0.168000
     28 C3           5.4300    -0.7530    -0.4370 ca         1 G5Z       0.347900
     29 N1           4.7900    -0.0190    -1.3760 nb         1 G5Z      -0.664000
     30 C5           3.4520     0.1500    -1.2360 ca         1 G5Z       0.384900
     31 H3           2.8450    -1.6240     1.6220 ha         1 G5Z       0.121000
     32 H11          5.3290    -1.9290     1.3760 ha         1 G5Z       0.125000
     33 H12          6.5050    -0.8750    -0.5660 h4         1 G5Z       0.020100
     34 H13          2.9580     0.7400    -2.0080 h4         1 G5Z       0.027100
@<TRIPOS>BOND
     1     1     2 1   
     2     1    16 1   
     3     1    17 1   
     4     2     3 1   
     5     2     5 1   
     6     2    18 1   
     7     3     4 2   
     8     3    13 1   
     9     5    19 1   
    10     5    20 1   
    11     5    21 1   
    12     6     7 1   
    13     6    22 1   
    14     6    23 1   
    15     6    24 1   
    16     7    10 1   
    17     7    14 2   
    18     8    11 1   
    19     8    26 ar  
    20     8    30 ar  
    21     9    12 2   
    22     9    13 1   
    23     9    15 1   
    24    10    11 2   
    25    10    12 1   
    26    11    15 1   
    27    13    25 1   
    28    26    27 ar  
    29    26    31 1   
    30    27    28 ar  
    31    27    32 1   
    32    28    29 ar  
    33    28    33 1   
    34    29    30 ar  
    35    30    34 1   
@<TRIPOS>SUBSTRUCTURE
     1 G5Z         1 TEMP              0 ****  ****    0 ROOT
