@<TRIPOS>MOLECULE
G5Z
   34    35     1     0     0
SMALL
abcg2


@<TRIPOS>ATOM
      1 N           -5.9960     0.2570    -0.6110 n8         1 G5Z      -0.975200
      2 CA          -4.9150    -0.6260    -0.2290 c3         1 G5Z       0.082500
      3 C           -3.6280     0.1810    -0.1410 c          1 G5Z       0.612100
      4 O           -3.6000     1.3650     0.0910 o          1 G5Z      -0.505100
      5 CB          -5.1270    -1.3660     1.0990 c3         1 G5Z      -0.136100
      6 CAA          0.2930     3.6110     0.3090 c3         1 G5Z      -0.182100
      7 CAN          1.2140     2.4260     0.2580 c          1 G5Z       0.503600
      8 CAP          2.6600    -0.4230     0.0000 ca         1 G5Z      -0.073000
      9 CAQ         -1.1960    -0.1690    -0.1840 cc         1 G5Z       0.585300
     10 CAR          0.5760     1.1050     0.0350 cd         1 G5Z       0.235500
     11 CAS          1.2340    -0.0920    -0.0320 cc         1 G5Z      -0.116000
     12 NAK         -0.7880     1.0430    -0.0590 nd         1 G5Z      -0.645000
     13 NAL         -2.4970    -0.5900    -0.2990 ns         1 G5Z      -0.489400
     14 OAD          2.4130     2.5240     0.4030 o          1 G5Z      -0.515100
     15 SAM          0.0760    -1.3590    -0.2050 ss         1 G5Z      -0.087400
     16 H1          -6.8480    -0.2860    -0.6760 hn         1 G5Z       0.408000
     17 H2          -6.1570     0.9400     0.1200 hn         1 G5Z       0.408000
     18 H4          -4.8000    -1.3730    -1.0200 h1         1 G5Z       0.069700
     19 H5          -6.0550    -1.9370     1.0520 hc         1 G5Z       0.047367
     20 H6          -4.3210    -2.0660     1.3220 hc         1 G5Z       0.047367
     21 H7          -5.2050    -0.6610     1.9290 hc         1 G5Z       0.047367
     22 H8          -0.2710     3.6930    -0.6210 hc         1 G5Z       0.069700
     23 H9          -0.4400     3.4940     1.1070 hc         1 G5Z       0.069700
     24 H10          0.8620     4.5240     0.4670 hc         1 G5Z       0.069700
     25 H14         -2.6400    -1.5660    -0.5120 hn         1 G5Z       0.329500
     26 C1           3.1880    -1.2700     0.9680 ca         1 G5Z      -0.055000
     27 C2           4.5420    -1.5650     0.9350 ca         1 G5Z      -0.168000
     28 C3           5.3150    -1.0070    -0.0700 ca         1 G5Z       0.347900
     29 N1           4.8190    -0.2100    -1.0120 nb         1 G5Z      -0.664000
     30 C5           3.5270     0.0690    -0.9750 ca         1 G5Z       0.384900
     31 H3           2.5550    -1.6840     1.7440 ha         1 G5Z       0.121000
     32 H11          4.9900    -2.2120     1.6750 ha         1 G5Z       0.125000
     33 H12          6.3780    -1.2160    -0.1220 h4         1 G5Z       0.020100
     34 H13          3.1430     0.7080    -1.7630 h4         1 G5Z       0.027100
@<TRIPOS>BOND
     1     1     2 1   
     2     1    16 1   
     3     1    17 1   
     4     2     3 1   
     5     2     5 1   
     6     2    18 1   
     7     3     4 2   
     8     3    13 1   
     9     5    19 1   
    10     5    20 1   
    11     5    21 1   
    12     6     7 1   
    13     6    22 1   
    14     6    23 1   
    15     6    24 1   
    16     7    10 1   
    17     7    14 2   
    18     8    11 1   
    19     8    26 ar  
    20     8    30 ar  
    21     9    12 2   
    22     9    13 1   
    23     9    15 1   
    24    10    11 2   
    25    10    12 1   
    26    11    15 1   
    27    13    25 1   
    28    26    27 ar  
    29    26    31 1   
    30    27    28 ar  
    31    27    32 1   
    32    28    29 ar  
    33    28    33 1   
    34    29    30 ar  
    35    30    34 1   
@<TRIPOS>SUBSTRUCTURE
     1 G5Z         1 TEMP              0 ****  ****    0 ROOT
