@<TRIPOS>MOLECULE
G60
   27    28     1     0     0
SMALL
No Charge or Current Charge


@<TRIPOS>ATOM
      1 C13         -0.0840     3.9670    30.2140 ca         1 G60      -0.045200
      2 C1           1.3670     0.5590    29.7550 c3         1 G60      -0.040900
      3 C2           1.0730     2.0320    29.8270 cc         1 G60      -0.052300
      4 C3           1.8780     3.1230    29.5080 cd         1 G60      -0.133400
      5 C4           3.2940     3.0550    28.9890 c3         1 G60      -0.004200
      6 C5           4.3360     3.3030    30.1010 c3         1 G60       0.147800
      7 C7           1.1450     4.3440    29.7530 ca         1 G60      -0.087800
      8 C8           1.5000     5.6910    29.5970 ca         1 G60      -0.051000
      9 C9           0.5350     6.6630    29.9350 ca         1 G60       0.091000
     10 C11         -0.7410     6.2760    30.4130 ca         1 G60      -0.086000
     11 C12         -1.0640     4.9080    30.5580 ca         1 G60      -0.122000
     12 N6           5.7240     3.2430    29.5950 n8         1 G60      -0.997200
     13 N14         -0.1460     2.5870    30.2650 na         1 G60      -0.221700
     14 Cl           0.9190     8.3710    29.7610 cl         1 G60      -0.218000
     15 H11          0.5600    -0.0310    30.2060 hc         1 G60       0.049700
     16 H13          1.4810     0.2360    28.7140 hc         1 G60       0.049700
     17 H12          2.2960     0.3210    30.2880 hc         1 G60       0.049700
     18 H41          3.4820     2.0770    28.5290 hc         1 G60       0.050700
     19 H42          3.4320     3.7990    28.1950 hc         1 G60       0.050700
     20 H51          4.1670     4.2940    30.5450 h1         1 G60       0.030200
     21 H52          4.2150     2.5470    30.8900 h1         1 G60       0.030200
     22 H81          2.4810     5.9800    29.2300 ha         1 G60       0.134000
     23 H111        -1.4750     7.0360    30.6690 ha         1 G60       0.127000
     24 H121        -2.0400     4.5980    30.9240 ha         1 G60       0.117000
     25 H61          6.3720     3.3610    30.3830 hn         1 G60       0.390500
     26 H62          5.9190     2.2900    29.2650 hn         1 G60       0.390500
     27 H141        -0.9520     2.0530    30.5730 hn         1 G60       0.349000
@<TRIPOS>BOND
     1     1     7 ar  
     2     1    11 ar  
     3     1    13 1   
     4     2     3 1   
     5     2    15 1   
     6     2    16 1   
     7     2    17 1   
     8     3     4 2   
     9     3    13 1   
    10     4     5 1   
    11     4     7 1   
    12     5     6 1   
    13     5    18 1   
    14     5    19 1   
    15     6    12 1   
    16     6    20 1   
    17     6    21 1   
    18     7     8 ar  
    19     8     9 ar  
    20     8    22 1   
    21     9    10 ar  
    22     9    14 1   
    23    10    11 ar  
    24    10    23 1   
    25    11    24 1   
    26    12    25 1   
    27    12    26 1   
    28    13    27 1   
@<TRIPOS>SUBSTRUCTURE
     1 G60         1 TEMP              0 ****  ****    0 ROOT
