@<TRIPOS>MOLECULE
G60
   27    28     1     0     0
SMALL
bcc


@<TRIPOS>ATOM
      1 C13         -0.0980     3.9690    30.1680 ca         1 G60      -0.045200
      2 C1           1.3810     0.6660    29.7510 c3         1 G60      -0.040900
      3 C2           1.1140     2.1270    29.7900 cc         1 G60      -0.052300
      4 C3           1.9380     3.1790    29.4790 cd         1 G60      -0.133400
      5 C4           3.3590     3.1170    29.0260 c3         1 G60      -0.004200
      6 C5           4.3480     3.1580    30.1880 c3         1 G60       0.147800
      7 C7           1.1800     4.3690    29.7200 ca         1 G60      -0.087800
      8 C8           1.4670     5.7310    29.5900 ca         1 G60      -0.069000
      9 C9           0.4740     6.6330    29.9090 ca         1 G60      -0.000600
     10 C11         -0.7930     6.2350    30.3520 ca         1 G60      -0.104000
     11 C12         -1.0900     4.8910    30.4850 ca         1 G60      -0.140000
     12 N6           5.7190     3.1390    29.7010 n8         1 G60      -0.886800
     13 N14         -0.1040     2.6070    30.1990 na         1 G60      -0.171400
     14 CL           0.7970     8.3390    29.7580 cl         1 G60      -0.126400
     15 H11          1.4100     0.2410    30.7560 hc         1 G60       0.049700
     16 H13          0.6100     0.1320    29.1930 hc         1 G60       0.049700
     17 H12          2.3400     0.4610    29.2790 hc         1 G60       0.049700
     18 H41          3.5300     2.2060    28.4440 hc         1 G60       0.050700
     19 H42          3.5720     3.9510    28.3510 hc         1 G60       0.050700
     20 H51          4.1960     4.0830    30.7510 h1         1 G60       0.030200
     21 H52          4.1120     2.3360    30.8780 h1         1 G60       0.030200
     22 H81          2.4380     6.0680    29.2490 ha         1 G60       0.152000
     23 H111        -1.5410     6.9790    30.5910 ha         1 G60       0.145000
     24 H121        -2.0680     4.5760    30.8250 ha         1 G60       0.135000
     25 H61          6.3560     3.2210    30.4830 hn         1 G60       0.335300
     26 H62          5.9130     2.2360    29.2870 hn         1 G60       0.335300
     27 H141        -0.8840     2.0340    30.4790 hn         1 G60       0.298700
@<TRIPOS>BOND
     1     1     7 ar  
     2     1    11 ar  
     3     1    13 1   
     4     2     3 1   
     5     2    15 1   
     6     2    16 1   
     7     2    17 1   
     8     3     4 2   
     9     3    13 1   
    10     4     5 1   
    11     4     7 1   
    12     5     6 1   
    13     5    18 1   
    14     5    19 1   
    15     6    12 1   
    16     6    20 1   
    17     6    21 1   
    18     7     8 ar  
    19     8     9 ar  
    20     8    22 1   
    21     9    10 ar  
    22     9    14 1   
    23    10    11 ar  
    24    10    23 1   
    25    11    24 1   
    26    12    25 1   
    27    12    26 1   
    28    13    27 1   
@<TRIPOS>SUBSTRUCTURE
     1 G60         1 TEMP              0 ****  ****    0 ROOT
