@<TRIPOS>MOLECULE
G61
   91    93     1     0     0
SMALL
No Charge or Current Charge


@<TRIPOS>ATOM
      1 O39         -3.5490    -3.2360     3.3790 os         1 G61      -0.336100
      2 C40         -4.3550    -3.2960     4.5690 c3         1 G61       0.146900
      3 C2          -3.8470    -2.3900     2.3300 ca         1 G61       0.193100
      4 C3          -4.9620    -1.5270     2.3420 ca         1 G61      -0.201000
      5 C4          -5.2130    -0.6880     1.2440 ca         1 G61       0.024000
      6 C5          -4.3500    -0.7060     0.1310 ca         1 G61      -0.341500
      7 C6          -3.2380    -1.5670     0.1150 ca         1 G61       0.024000
      8 C7          -2.9950    -2.4040     1.2170 ca         1 G61      -0.201000
      9 S8          -4.6820     0.3950    -1.2490 sy         1 G61       1.188600
     10 O9          -3.6720     0.2150    -2.2950 o          1 G61      -0.537500
     11 O10         -6.1180     0.2710    -1.5190 o          1 G61      -0.537500
     12 N11         -4.4400     1.9370    -0.5480 n3         1 G61      -0.771500
     13 C12         -4.7330     3.1020    -1.4250 c3         1 G61       0.237800
     14 C13         -6.2230     3.3670    -1.7850 c3         1 G61      -0.091700
     15 C14         -7.1280     3.4510    -0.5310 c3         1 G61      -0.087100
     16 C15         -6.3600     4.6430    -2.6470 c3         1 G61      -0.087100
     17 C16         -3.1840     2.0880     0.2550 c3         1 G61       0.191800
     18 C17         -1.8370     2.3200    -0.5210 c3         1 G61       0.132300
     19 O18         -1.8010     3.6630    -1.0640 oh         1 G61      -0.635000
     20 C19         -0.5880     2.0780     0.3950 c3         1 G61       0.117700
     21 N20         -0.4150     0.6530     0.7350 ns         1 G61      -0.515900
     22 C21          0.0150    -0.3260    -0.1220 c          1 G61       0.650100
     23 O22          0.1870    -0.1780    -1.3190 o          1 G61      -0.528000
     24 O23          0.2790    -1.4470     0.6160 os         1 G61      -0.488100
     25 C24          0.9770    -2.5930     0.0680 c3         1 G61       0.226000
     26 C25          2.4000    -2.1640    -0.3680 c3         1 G61      -0.109767
     27 C26          1.0750    -3.5850     1.2490 c3         1 G61      -0.109767
     28 C27          0.1610    -3.2260    -1.0900 c3         1 G61      -0.109767
     29 C32          0.7360     2.6870    -0.1630 c3         1 G61      -0.043100
     30 C33          2.9400     1.4470     0.1420 ca         1 G61      -0.086000
     31 C34          4.0840     1.0800     0.8940 cp         1 G61      -0.041000
     32 C35          4.2300     1.6340     2.1900 ca         1 G61      -0.095000
     33 C36          3.2700     2.5180     2.7110 ca         1 G61      -0.115000
     34 C37          2.1420     2.8620     1.9500 ca         1 G61      -0.111000
     35 C38          1.9690     2.3260     0.6610 ca         1 G61      -0.081300
     36 C51          5.0930     0.1200     0.3410 cp         1 G61       0.034000
     37 C52          5.3990     0.0920    -1.0400 ca         1 G61      -0.175500
     38 C53          6.3210    -0.8230    -1.5680 ca         1 G61       0.175100
     39 C54          6.9640    -1.7420    -0.7150 ca         1 G61      -0.286000
     40 C55          6.6750    -1.7330     0.6640 ca         1 G61       0.175100
     41 C56          5.7520    -0.8120     1.1770 ca         1 G61      -0.175500
     42 O61          6.5610    -0.7790    -2.9260 os         1 G61      -0.341600
     43 C62          7.4820    -1.6730    -3.5760 c3         1 G61       0.149900
     44 O63          7.2640    -2.6100     1.5510 os         1 G61      -0.341600
     45 C64          8.2190    -3.6020     1.1340 c3         1 G61       0.149900
     46 H1          -3.9410    -4.0290     5.2720 h1         1 G61       0.045700
     47 H2          -4.3810    -2.3210     5.0720 h1         1 G61       0.045700
     48 H3          -5.3830    -3.5970     4.3290 h1         1 G61       0.045700
     49 H4          -5.6410    -1.4910     3.1890 ha         1 G61       0.126500
     50 H5          -6.0710    -0.0170     1.2630 ha         1 G61       0.136500
     51 H6          -2.5650    -1.5900    -0.7400 ha         1 G61       0.136500
     52 H7          -2.1380    -3.0690     1.2120 ha         1 G61       0.126500
     53 H8          -4.3860     4.0160    -0.9240 h1         1 G61       0.063700
     54 H9          -4.1550     3.0230    -2.3570 h1         1 G61       0.063700
     55 H10         -6.5860     2.5440    -2.4090 hc         1 G61       0.053700
     56 H11         -6.8050     4.2650     0.1280 hc         1 G61       0.035200
     57 H12         -8.1700     3.6330    -0.8180 hc         1 G61       0.035200
     58 H13         -7.0970     2.5160     0.0400 hc         1 G61       0.035200
     59 H14         -5.7540     4.5630    -3.5580 hc         1 G61       0.035200
     60 H15         -7.4030     4.7980    -2.9480 hc         1 G61       0.035200
     61 H16         -6.0290     5.5290    -2.0910 hc         1 G61       0.035200
     62 H17         -3.3130     2.9410     0.9340 h1         1 G61       0.049200
     63 H18         -3.0510     1.2290     0.9220 h1         1 G61       0.049200
     64 H19         -1.7810     1.5910    -1.3390 h1         1 G61       0.133700
     65 H20         -1.8640     4.2910    -0.3140 ho         1 G61       0.428000
     66 H21         -0.7840     2.5900     1.3460 h1         1 G61       0.036700
     67 H22         -0.4730     0.3740     1.7050 hn         1 G61       0.324500
     68 H23          2.9010    -1.6270     0.4450 hc         1 G61       0.049922
     69 H24          3.0070    -3.0420    -0.6160 hc         1 G61       0.049922
     70 H25          2.3820    -1.5190    -1.2530 hc         1 G61       0.049922
     71 H26          0.0800    -3.8840     1.5970 hc         1 G61       0.049922
     72 H27          1.6150    -4.4920     0.9510 hc         1 G61       0.049922
     73 H28          1.6100    -3.1340     2.0930 hc         1 G61       0.049922
     74 H29          0.1710    -2.6040    -1.9900 hc         1 G61       0.049922
     75 H30          0.5880    -4.1970    -1.3670 hc         1 G61       0.049922
     76 H31         -0.8800    -3.3940    -0.7940 hc         1 G61       0.049922
     77 H32          0.8680     2.3740    -1.2050 hc         1 G61       0.072700
     78 H33          0.6460     3.7790    -0.1950 hc         1 G61       0.072700
     79 H35          5.0990     1.3860     2.7940 ha         1 G61       0.117000
     80 H36          3.4010     2.9350     3.7070 ha         1 G61       0.112000
     81 H37          1.4020     3.5440     2.3630 ha         1 G61       0.106000
     82 H38          4.9230     0.7960    -1.7160 ha         1 G61       0.134000
     83 H39          7.6770    -2.4520    -1.1180 ha         1 G61       0.120000
     84 H40          5.5300    -0.8360     2.2400 ha         1 G61       0.134000
     85 H41          7.1720    -2.7170    -3.4410 h1         1 G61       0.040367
     86 H42          7.5170    -1.4650    -4.6520 h1         1 G61       0.040367
     87 H43          8.4950    -1.5500    -3.1720 h1         1 G61       0.040367
     88 H44          7.7720    -4.2930     0.4080 h1         1 G61       0.040367
     89 H45          9.0990    -3.1300     0.6790 h1         1 G61       0.040367
     90 H46          8.5580    -4.1890     1.9970 h1         1 G61       0.040367
     91 H34          2.7920     1.0240    -0.8470 ha         1 G61       0.132000
@<TRIPOS>BOND
     1     1     2 1   
     2     1     3 1   
     3     2    46 1   
     4     2    47 1   
     5     2    48 1   
     6     3     4 ar  
     7     3     8 ar  
     8     4     5 ar  
     9     4    49 1   
    10     5     6 ar  
    11     5    50 1   
    12     6     7 ar  
    13     6     9 1   
    14     7     8 ar  
    15     7    51 1   
    16     8    52 1   
    17     9    10 2   
    18     9    11 2   
    19     9    12 1   
    20    12    13 1   
    21    12    17 1   
    22    13    14 1   
    23    13    53 1   
    24    13    54 1   
    25    14    15 1   
    26    14    16 1   
    27    14    55 1   
    28    15    56 1   
    29    15    57 1   
    30    15    58 1   
    31    16    59 1   
    32    16    60 1   
    33    16    61 1   
    34    17    18 1   
    35    17    62 1   
    36    17    63 1   
    37    18    19 1   
    38    18    20 1   
    39    18    64 1   
    40    19    65 1   
    41    20    21 1   
    42    20    29 1   
    43    20    66 1   
    44    21    22 1   
    45    21    67 1   
    46    22    23 2   
    47    22    24 1   
    48    24    25 1   
    49    25    26 1   
    50    25    27 1   
    51    25    28 1   
    52    26    68 1   
    53    26    69 1   
    54    26    70 1   
    55    27    71 1   
    56    27    72 1   
    57    27    73 1   
    58    28    74 1   
    59    28    75 1   
    60    28    76 1   
    61    29    35 1   
    62    29    77 1   
    63    29    78 1   
    64    30    31 ar  
    65    30    35 ar  
    66    30    91 1   
    67    31    32 ar  
    68    31    36 1   
    69    32    33 ar  
    70    32    79 1   
    71    33    34 ar  
    72    33    80 1   
    73    34    35 ar  
    74    34    81 1   
    75    36    37 ar  
    76    36    41 ar  
    77    37    38 ar  
    78    37    82 1   
    79    38    39 ar  
    80    38    42 1   
    81    39    40 ar  
    82    39    83 1   
    83    40    41 ar  
    84    40    44 1   
    85    41    84 1   
    86    42    43 1   
    87    43    85 1   
    88    43    86 1   
    89    43    87 1   
    90    44    45 1   
    91    45    88 1   
    92    45    89 1   
    93    45    90 1   
@<TRIPOS>SUBSTRUCTURE
     1 G61         1 TEMP              0 ****  ****    0 ROOT
