@<TRIPOS>MOLECULE
G61
   91    93     1     0     0
SMALL
bcc


@<TRIPOS>ATOM
      1 O39         -5.0360    -3.1210     3.1280 os         1 G61      -0.312900
      2 C40         -6.3310    -3.3070     3.6730 c3         1 G61       0.123700
      3 C2          -4.8960    -2.3630     2.0360 ca         1 G61       0.193100
      4 C3          -5.9540    -1.7400     1.3720 ca         1 G61      -0.219000
      5 C4          -5.7060    -0.9690     0.2480 ca         1 G61       0.006000
      6 C5          -4.4110    -0.8090    -0.2200 ca         1 G61      -0.341500
      7 C6          -3.3540    -1.4450     0.4280 ca         1 G61       0.006000
      8 C7          -3.5930    -2.2100     1.5500 ca         1 G61      -0.219000
      9 S8          -4.0990     0.1980    -1.6400 sy         1 G61       1.330200
     10 O9          -2.8660    -0.3080    -2.2250 o          1 G61      -0.608300
     11 O10         -5.3100     0.2430    -2.4460 o          1 G61      -0.608300
     12 N11         -3.8200     1.7240    -1.1100 n3         1 G61      -0.771500
     13 C12         -4.8580     2.7500    -1.1720 c3         1 G61       0.237800
     14 C13         -5.9810     2.6440    -0.1420 c3         1 G61      -0.091700
     15 C14         -5.4670     2.5610     1.2900 c3         1 G61      -0.087100
     16 C15         -6.9210     3.8310    -0.3190 c3         1 G61      -0.087100
     17 C16         -2.6120     1.9530    -0.3290 c3         1 G61       0.191800
     18 C17         -1.4030     2.3720    -1.1640 c3         1 G61       0.109100
     19 O18         -1.6070     3.6240    -1.7740 oh         1 G61      -0.572800
     20 C19         -0.1410     2.3490    -0.2810 c3         1 G61       0.117700
     21 N20          0.1070     1.0110     0.2180 ns         1 G61      -0.582900
     22 C21          0.4790    -0.0380    -0.5460 c          1 G61       0.766100
     23 O22          0.6320     0.0000    -1.7500 o          1 G61      -0.577000
     24 O23          0.6390    -1.1190     0.2220 os         1 G61      -0.464900
     25 C24          1.1780    -2.3690    -0.2840 c3         1 G61       0.202800
     26 C25          2.5600    -2.1670    -0.8940 c3         1 G61      -0.109767
     27 C26          1.2910    -3.2240     0.9730 c3         1 G61      -0.109767
     28 C27          0.2100    -3.0190    -1.2640 c3         1 G61      -0.109767
     29 C32          1.0840     2.9880    -0.9600 c3         1 G61      -0.043100
     30 C33          3.2080     1.7990    -0.3320 ca         1 G61      -0.104000
     31 C34          4.3000     1.5770     0.5060 cp         1 G61      -0.041000
     32 C35          4.5050     2.4400     1.5820 ca         1 G61      -0.113000
     33 C36          3.6340     3.4970     1.8020 ca         1 G61      -0.133000
     34 C37          2.5430     3.6930     0.9670 ca         1 G61      -0.129000
     35 C38          2.3130     2.8390    -0.1090 ca         1 G61      -0.081300
     36 C51          5.1890     0.4210     0.2670 cp         1 G61       0.034000
     37 C52          5.5540     0.0750    -1.0300 ca         1 G61      -0.193500
     38 C53          6.3500    -1.0440    -1.2500 ca         1 G61       0.175100
     39 C54          6.7920    -1.8250    -0.1830 ca         1 G61      -0.304000
     40 C55          6.4240    -1.4660     1.1130 ca         1 G61       0.175100
     41 C56          5.6270    -0.3480     1.3400 ca         1 G61      -0.193500
     42 O61          6.6580    -1.3060    -2.5350 os         1 G61      -0.318400
     43 C62          7.4490    -2.4390    -2.8330 c3         1 G61       0.126700
     44 O63          6.7920    -2.1610     2.2060 os         1 G61      -0.318400
     45 C64          7.5940    -3.3140     2.0460 c3         1 G61       0.126700
     46 H1          -6.2050    -3.9330     4.5520 h1         1 G61       0.045700
     47 H2          -6.7830    -2.3600     3.9740 h1         1 G61       0.045700
     48 H3          -6.9970    -3.8120     2.9700 h1         1 G61       0.045700
     49 H4          -6.9760    -1.8480     1.7080 ha         1 G61       0.144500
     50 H5          -6.5420    -0.5050    -0.2570 ha         1 G61       0.154500
     51 H6          -2.3400    -1.3530     0.0620 ha         1 G61       0.154500
     52 H7          -2.7740    -2.7040     2.0560 ha         1 G61       0.144500
     53 H8          -4.3380     3.7010    -1.0470 h1         1 G61       0.063700
     54 H9          -5.2820     2.7740    -2.1760 h1         1 G61       0.063700
     55 H10         -6.5560     1.7370    -0.3510 hc         1 G61       0.053700
     56 H11         -4.9230     3.4660     1.5710 hc         1 G61       0.035200
     57 H12         -6.2980     2.4490     1.9880 hc         1 G61       0.035200
     58 H13         -4.8030     1.7080     1.4390 hc         1 G61       0.035200
     59 H14         -7.3270     3.8750    -1.3320 hc         1 G61       0.035200
     60 H15         -7.7630     3.7700     0.3720 hc         1 G61       0.035200
     61 H16         -6.4040     4.7750    -0.1290 hc         1 G61       0.035200
     62 H17         -2.8300     2.7320     0.4060 h1         1 G61       0.049200
     63 H18         -2.3670     1.0690     0.2630 h1         1 G61       0.049200
     64 H19         -1.2700     1.6630    -1.9790 h1         1 G61       0.133700
     65 H20         -1.7250     4.2930    -1.0910 ho         1 G61       0.389000
     66 H21         -0.3510     2.9400     0.6180 h1         1 G61       0.036700
     67 H22          0.0920     0.8780     1.2150 hn         1 G61       0.324500
     68 H23          3.2120    -1.6050    -0.2230 hc         1 G61       0.049922
     69 H24          3.0230    -3.1410    -1.0630 hc         1 G61       0.049922
     70 H25          2.5220    -1.6500    -1.8500 hc         1 G61       0.049922
     71 H26          0.3180    -3.3600     1.4490 hc         1 G61       0.049922
     72 H27          1.6770    -4.2100     0.7160 hc         1 G61       0.049922
     73 H28          1.9710    -2.7740     1.6980 hc         1 G61       0.049922
     74 H29          0.0730    -2.4280    -2.1670 hc         1 G61       0.049922
     75 H30          0.5960    -3.9970    -1.5560 hc         1 G61       0.049922
     76 H31         -0.7660    -3.1800    -0.8030 hc         1 G61       0.049922
     77 H32          1.2470     2.5450    -1.9430 hc         1 G61       0.072700
     78 H33          0.8710     4.0450    -1.1190 hc         1 G61       0.072700
     79 H35          5.3540     2.2990     2.2390 ha         1 G61       0.135000
     80 H36          3.8070     4.1730     2.6290 ha         1 G61       0.130000
     81 H37          1.8610     4.5140     1.1550 ha         1 G61       0.124000
     82 H38          5.2340     0.6740    -1.8730 ha         1 G61       0.152000
     83 H39          7.4090    -2.6940    -0.3580 ha         1 G61       0.138000
     84 H40          5.3310    -0.1030     2.3530 ha         1 G61       0.152000
     85 H41          6.9720    -3.3670    -2.5070 h1         1 G61       0.040367
     86 H42          7.5560    -2.4630    -3.9140 h1         1 G61       0.040367
     87 H43          8.4430    -2.3750    -2.3830 h1         1 G61       0.040367
     88 H44          7.0990    -4.0770     1.4400 h1         1 G61       0.040367
     89 H45          8.5620    -3.0790     1.5950 h1         1 G61       0.040367
     90 H46          7.7610    -3.7140     3.0430 h1         1 G61       0.040367
     91 H34          3.0380     1.1200    -1.1590 ha         1 G61       0.150000
@<TRIPOS>BOND
     1     1     2 1   
     2     1     3 1   
     3     2    46 1   
     4     2    47 1   
     5     2    48 1   
     6     3     4 ar  
     7     3     8 ar  
     8     4     5 ar  
     9     4    49 1   
    10     5     6 ar  
    11     5    50 1   
    12     6     7 ar  
    13     6     9 1   
    14     7     8 ar  
    15     7    51 1   
    16     8    52 1   
    17     9    10 2   
    18     9    11 2   
    19     9    12 1   
    20    12    13 1   
    21    12    17 1   
    22    13    14 1   
    23    13    53 1   
    24    13    54 1   
    25    14    15 1   
    26    14    16 1   
    27    14    55 1   
    28    15    56 1   
    29    15    57 1   
    30    15    58 1   
    31    16    59 1   
    32    16    60 1   
    33    16    61 1   
    34    17    18 1   
    35    17    62 1   
    36    17    63 1   
    37    18    19 1   
    38    18    20 1   
    39    18    64 1   
    40    19    65 1   
    41    20    21 1   
    42    20    29 1   
    43    20    66 1   
    44    21    22 1   
    45    21    67 1   
    46    22    23 2   
    47    22    24 1   
    48    24    25 1   
    49    25    26 1   
    50    25    27 1   
    51    25    28 1   
    52    26    68 1   
    53    26    69 1   
    54    26    70 1   
    55    27    71 1   
    56    27    72 1   
    57    27    73 1   
    58    28    74 1   
    59    28    75 1   
    60    28    76 1   
    61    29    35 1   
    62    29    77 1   
    63    29    78 1   
    64    30    31 ar  
    65    30    35 ar  
    66    30    91 1   
    67    31    32 ar  
    68    31    36 1   
    69    32    33 ar  
    70    32    79 1   
    71    33    34 ar  
    72    33    80 1   
    73    34    35 ar  
    74    34    81 1   
    75    36    37 ar  
    76    36    41 ar  
    77    37    38 ar  
    78    37    82 1   
    79    38    39 ar  
    80    38    42 1   
    81    39    40 ar  
    82    39    83 1   
    83    40    41 ar  
    84    40    44 1   
    85    41    84 1   
    86    42    43 1   
    87    43    85 1   
    88    43    86 1   
    89    43    87 1   
    90    44    45 1   
    91    45    88 1   
    92    45    89 1   
    93    45    90 1   
@<TRIPOS>SUBSTRUCTURE
     1 G61         1 TEMP              0 ****  ****    0 ROOT
