@<TRIPOS>MOLECULE
G62
   37    40     1     0     0
SMALL
abcg2


@<TRIPOS>ATOM
      1 C10          0.0060     2.9470     0.3570 ca         1 G62      -0.073000
      2 C15         -2.5530    -0.8160    -1.3170 cx         1 G62      -0.103400
      3 C17         -3.7860    -1.8760     0.7340 c6         1 G62       0.180600
      4 C20         -3.8230     0.9780     0.0570 c6         1 G62      -0.078400
      5 C11         -1.2270     2.3280     0.2350 ca         1 G62      -0.156000
      6 C16         -2.5480    -1.2570     0.1060 cx         1 G62      -0.129700
      7 N13         -0.1420     0.2590    -0.1750 nb         1 G62      -0.695000
      8 C09          1.1650     2.2050     0.2110 ca         1 G62      -0.158000
      9 C06          2.2290    -0.0280    -0.2490 cp         1 G62      -0.106500
     10 O18         -4.7420    -0.9420     1.1790 os         1 G62      -0.445000
     11 C12         -1.2610     0.9610    -0.0380 ca         1 G62       0.406300
     12 C04          3.2230    -2.0130    -1.1770 ca         1 G62      -0.084000
     13 C19         -5.0130     0.0440     0.2110 c6         1 G62       0.153600
     14 C03          4.4590    -1.6650    -0.6550 ca         1 G62      -0.134000
     15 C05          2.1100    -1.2110    -0.9770 ca         1 G62      -0.108000
     16 C14         -2.5420     0.2190    -0.2210 cx         1 G62      -0.170300
     17 C02          4.5810    -0.4900     0.0830 ca         1 G62       0.132100
     18 C07          3.4700     0.3230     0.2820 ca         1 G62      -0.192000
     19 C08          1.0450     0.8420    -0.0550 cp         1 G62       0.418500
     20 H1           0.0630     4.0100     0.5540 ha         1 G62       0.118000
     21 H2          -1.6410    -0.9350    -1.8890 hc         1 G62       0.078700
     22 H3          -3.4640    -0.9290    -1.8940 hc         1 G62       0.078700
     23 H4          -4.2480    -2.5750     0.0220 h1         1 G62       0.047700
     24 H5          -3.4930    -2.4550     1.6110 h1         1 G62       0.047700
     25 H6          -4.0260     1.7050    -0.7340 hc         1 G62       0.053200
     26 H7          -3.7220     1.5400     0.9900 hc         1 G62       0.053200
     27 H8          -2.1340     2.9060     0.3390 ha         1 G62       0.126000
     28 H9          -1.6070    -1.6530     0.4690 hc         1 G62       0.106700
     29 H10          2.1310     2.6840     0.2820 ha         1 G62       0.124000
     30 H11          3.1300    -2.9250    -1.7520 ha         1 G62       0.116000
     31 H12         -5.8820     0.6070     0.5550 h1         1 G62       0.045200
     32 H13         -5.2870    -0.4130    -0.7510 h1         1 G62       0.045200
     33 H14          5.3250    -2.2960    -0.8120 ha         1 G62       0.129000
     34 H15          1.1510    -1.4930    -1.3890 ha         1 G62       0.133000
     35 H16          5.7600     0.6410     1.0760 ho         1 G62       0.463000
     36 H17          3.5760     1.2250     0.8750 ha         1 G62       0.111000
     37 O01          5.7950    -0.1880     0.5860 oh         1 G62      -0.534100
@<TRIPOS>BOND
     1     1     5 ar  
     2     1     8 ar  
     3     1    20 1   
     4     2     6 1   
     5     2    16 1   
     6     2    21 1   
     7     2    22 1   
     8     3     6 1   
     9     3    10 1   
    10     3    23 1   
    11     3    24 1   
    12     4    13 1   
    13     4    16 1   
    14     4    25 1   
    15     4    26 1   
    16     5    11 ar  
    17     5    27 1   
    18     6    16 1   
    19     6    28 1   
    20     7    11 ar  
    21     7    19 ar  
    22     8    19 ar  
    23     8    29 1   
    24     9    15 ar  
    25     9    18 ar  
    26     9    19 1   
    27    10    13 1   
    28    11    16 1   
    29    12    14 ar  
    30    12    15 ar  
    31    12    30 1   
    32    13    31 1   
    33    13    32 1   
    34    14    17 ar  
    35    14    33 1   
    36    15    34 1   
    37    17    18 ar  
    38    17    37 1   
    39    18    36 1   
    40    35    37 1   
@<TRIPOS>SUBSTRUCTURE
     1 G62         1 TEMP              0 ****  ****    0 ROOT
