@<TRIPOS>MOLECULE
G62
   37    40     1     0     0
SMALL
No Charge or Current Charge


@<TRIPOS>ATOM
      1 C10          0.0460     3.0010    -0.8620 ca         1 G62      -0.073000
      2 C15         -3.5050     0.2810    -1.5860 cx         1 G62      -0.103400
      3 C17         -3.7660    -2.0800    -0.4460 c6         1 G62       0.180600
      4 C20         -3.2890     0.4980     1.0290 c6         1 G62      -0.078400
      5 C11         -1.2110     2.3870    -0.7740 ca         1 G62      -0.156000
      6 C16         -2.8690    -0.9940    -1.0750 cx         1 G62      -0.129700
      7 N13         -0.1880     0.2660    -0.2280 nb         1 G62      -0.695000
      8 C09          1.1810     2.2110    -0.6230 ca         1 G62      -0.158000
      9 C06          2.2240    -0.0610    -0.0320 cp         1 G62      -0.106500
     10 O18         -3.9780    -1.8560     0.9680 os         1 G62      -0.445000
     11 C12         -1.2860     1.0190    -0.4610 ca         1 G62       0.406300
     12 C04          3.2250    -2.3150     0.0680 ca         1 G62      -0.084000
     13 C19         -4.4200    -0.5240     1.3040 c6         1 G62       0.153600
     14 C03          4.4530    -1.7660     0.4660 ca         1 G62      -0.134000
     15 C05          2.1260    -1.4740    -0.1750 ca         1 G62      -0.108000
     16 C14         -2.6210     0.3260    -0.3550 cx         1 G62      -0.170300
     17 C02          4.5800    -0.3800     0.6230 ca         1 G62       0.132100
     18 C07          3.4830     0.4630     0.3790 ca         1 G62      -0.192000
     19 C08          1.0380     0.8370    -0.2980 cp         1 G62       0.418500
     20 H1           0.1380     4.0560    -1.1120 ha         1 G62       0.118000
     21 H2          -3.1130     0.6990    -2.5110 hc         1 G62       0.078700
     22 H3          -4.5760     0.4140    -1.4570 hc         1 G62       0.078700
     23 H4          -4.7380    -2.0950    -0.9610 h1         1 G62       0.047700
     24 H5          -3.2950    -3.0640    -0.5810 h1         1 G62       0.047700
     25 H6          -3.6790     1.5200     1.1270 hc         1 G62       0.053200
     26 H7          -2.5230     0.3850     1.8080 hc         1 G62       0.053200
     27 H8          -2.1190     2.9570    -0.9490 ha         1 G62       0.126000
     28 H9          -2.0570    -1.4060    -1.6700 hc         1 G62       0.106700
     29 H10          2.1650     2.6600    -0.7040 ha         1 G62       0.124000
     30 H11          3.1240    -3.3910    -0.0530 ha         1 G62       0.116000
     31 H12         -4.6970    -0.4950     2.3670 h1         1 G62       0.045200
     32 H13         -5.3160    -0.2790     0.7140 h1         1 G62       0.045200
     33 H14          5.3040    -2.4150     0.6560 ha         1 G62       0.129000
     34 H15          1.1870    -1.9260    -0.4880 ha         1 G62       0.133000
     35 H16          5.6770     1.1220     1.0760 ho         1 G62       0.463000
     36 H17          3.6030     1.5330     0.5260 ha         1 G62       0.111000
     37 O01          5.7730     0.1480     1.0180 oh         1 G62      -0.534100
@<TRIPOS>BOND
     1     1     5 ar  
     2     1     8 ar  
     3     1    20 1   
     4     2     6 1   
     5     2    16 1   
     6     2    21 1   
     7     2    22 1   
     8     3     6 1   
     9     3    10 1   
    10     3    23 1   
    11     3    24 1   
    12     4    13 1   
    13     4    16 1   
    14     4    25 1   
    15     4    26 1   
    16     5    11 ar  
    17     5    27 1   
    18     6    16 1   
    19     6    28 1   
    20     7    11 ar  
    21     7    19 ar  
    22     8    19 ar  
    23     8    29 1   
    24     9    15 ar  
    25     9    18 ar  
    26     9    19 1   
    27    10    13 1   
    28    11    16 1   
    29    12    14 ar  
    30    12    15 ar  
    31    12    30 1   
    32    13    31 1   
    33    13    32 1   
    34    14    17 ar  
    35    14    33 1   
    36    15    34 1   
    37    17    18 ar  
    38    17    37 1   
    39    18    36 1   
    40    35    37 1   
@<TRIPOS>SUBSTRUCTURE
     1 G62         1 TEMP              0 ****  ****    0 ROOT
