@<TRIPOS>MOLECULE
G63
   25    25     1     0     0
SMALL
No Charge or Current Charge


@<TRIPOS>ATOM
      1 O3          -2.5170    -1.2730     0.0640 oh         1 G63      -0.652000
      2 C3          -1.3940    -0.5450     0.5810 c6         1 G63       0.146300
      3 C2          -1.6710     0.9740     0.3610 c6         1 G63       0.132500
      4 N2          -2.1290     1.2120    -1.0400 n8         1 G63      -0.976200
      5 C4          -0.0840    -1.0030    -0.1450 c6         1 G63       0.176300
      6 O4           0.1800    -2.3870     0.1600 oh         1 G63      -0.669000
      7 C5           1.1130    -0.0730     0.2440 c6         1 G63       0.174500
      8 C6           2.4420    -0.4710    -0.4850 c3         1 G63       0.162600
      9 O6           3.5450     0.3910    -0.1330 oh         1 G63      -0.676000
     10 N7           0.7880     1.3600    -0.0360 n7         1 G63      -0.881400
     11 C1          -0.4070     1.8210     0.7140 c6         1 G63       0.122800
     12 H1          -2.8650    -0.6470    -0.6180 ho         1 G63       0.448000
     13 H2          -1.2810    -0.7290     1.6600 h1         1 G63       0.032700
     14 H3          -2.4950     1.2730     1.0270 h1         1 G63       0.051700
     15 H4          -2.5080     2.1650    -1.1020 hn         1 G63       0.399500
     16 H5          -1.2780     1.2780    -1.6150 hn         1 G63       0.399500
     17 H7          -0.2440    -0.8950    -1.2290 h1         1 G63       0.059700
     18 H8          -0.7020    -2.8250     0.1350 ho         1 G63       0.464000
     19 H9           1.2920    -0.1840     1.3250 h1         1 G63       0.045700
     20 H10          2.6830    -1.5110    -0.2270 h1         1 G63       0.038700
     21 H11          2.2650    -0.4340    -1.5680 h1         1 G63       0.038700
     22 H12          4.3180     0.0970    -0.6640 ho         1 G63       0.448000
     23 H13          1.6090     1.9190     0.2370 hn         1 G63       0.439000
     24 H15         -0.5960     2.8820     0.4940 h1         1 G63       0.037200
     25 H16         -0.2110     1.7420     1.7940 h1         1 G63       0.037200
@<TRIPOS>BOND
     1     1     2 1   
     2     1    12 1   
     3     2     3 1   
     4     2     5 1   
     5     2    13 1   
     6     3     4 1   
     7     3    11 1   
     8     3    14 1   
     9     4    15 1   
    10     4    16 1   
    11     5     6 1   
    12     5     7 1   
    13     5    17 1   
    14     6    18 1   
    15     7     8 1   
    16     7    10 1   
    17     7    19 1   
    18     8     9 1   
    19     8    20 1   
    20     8    21 1   
    21     9    22 1   
    22    10    11 1   
    23    10    23 1   
    24    11    24 1   
    25    11    25 1   
@<TRIPOS>SUBSTRUCTURE
     1 G63         1 TEMP              0 ****  ****    0 ROOT
