@<TRIPOS>MOLECULE
G63
   25    25     1     0     0
SMALL
bcc


@<TRIPOS>ATOM
      1 O3          -2.4290    -1.2720    -0.0330 oh         1 G63      -0.589800
      2 C3          -1.3910    -0.4530     0.4510 c6         1 G63       0.123100
      3 C2          -1.6160     1.0410     0.1950 c6         1 G63       0.132500
      4 N2          -1.9170     1.3110    -1.2020 n8         1 G63      -0.865800
      5 C4          -0.0970    -0.9450    -0.1930 c6         1 G63       0.153100
      6 O4           0.1670    -2.2840     0.1630 oh         1 G63      -0.606800
      7 C5           1.0820    -0.0870     0.2670 c6         1 G63       0.174500
      8 C6           2.3600    -0.4920    -0.4480 c3         1 G63       0.139400
      9 O6           3.4210     0.2920     0.0550 oh         1 G63      -0.613800
     10 N7           0.7780     1.3020    -0.0190 n7         1 G63      -0.826200
     11 C1          -0.3810     1.7780     0.7120 c6         1 G63       0.122800
     12 H1          -3.2290    -1.0790     0.4660 ho         1 G63       0.409000
     13 H2          -1.2760    -0.5790     1.5390 h1         1 G63       0.032700
     14 H3          -2.4820     1.3560     0.7880 h1         1 G63       0.051700
     15 H4          -2.2870     2.2500    -1.2790 hn         1 G63       0.344300
     16 H5          -1.0490     1.3220    -1.7260 hn         1 G63       0.344300
     17 H7          -0.1850    -0.8480    -1.2860 h1         1 G63       0.059700
     18 H8          -0.5960    -2.8130    -0.0930 ho         1 G63       0.425000
     19 H9           1.2180    -0.2620     1.3510 h1         1 G63       0.045700
     20 H10          2.5440    -1.5600    -0.2920 h1         1 G63       0.038700
     21 H11          2.2210    -0.3340    -1.5260 h1         1 G63       0.038700
     22 H12          4.1970     0.1320    -0.4870 ho         1 G63       0.409000
     23 H13          1.5830     1.8760     0.1900 hn         1 G63       0.383800
     24 H15         -0.4930     2.8510     0.5410 h1         1 G63       0.037200
     25 H16         -0.2890     1.6340     1.8010 h1         1 G63       0.037200
@<TRIPOS>BOND
     1     1     2 1   
     2     1    12 1   
     3     2     3 1   
     4     2     5 1   
     5     2    13 1   
     6     3     4 1   
     7     3    11 1   
     8     3    14 1   
     9     4    15 1   
    10     4    16 1   
    11     5     6 1   
    12     5     7 1   
    13     5    17 1   
    14     6    18 1   
    15     7     8 1   
    16     7    10 1   
    17     7    19 1   
    18     8     9 1   
    19     8    20 1   
    20     8    21 1   
    21     9    22 1   
    22    10    11 1   
    23    10    23 1   
    24    11    24 1   
    25    11    25 1   
@<TRIPOS>SUBSTRUCTURE
     1 G63         1 TEMP              0 ****  ****    0 ROOT
