@<TRIPOS>MOLECULE
G64
   95    98     1     0     0
SMALL
bcc


@<TRIPOS>ATOM
      1 C2           8.0050    -3.4350     0.3370 ca         1 G64       0.197100
      2 O39          9.2040    -4.0230     0.3430 os         1 G64      -0.310900
      3 C40          9.8580    -4.2660    -0.8910 c3         1 G64       0.122700
      4 C3           7.4290    -3.1930     1.5890 ca         1 G64      -0.219000
      5 C4           6.1930    -2.5880     1.6820 ca         1 G64       0.011500
      6 C5           5.5210    -2.2120     0.5240 ca         1 G64      -0.323500
      7 C6           6.0810    -2.4530    -0.7220 ca         1 G64       0.011500
      8 C7           7.3180    -3.0630    -0.8220 ca         1 G64      -0.219000
      9 S8           3.9540    -1.4150     0.6110 sy         1 G64       1.315200
     10 O9           3.0900    -1.9440    -0.4380 o          1 G64      -0.614300
     11 O10          3.4870    -1.4990     1.9910 o          1 G64      -0.614300
     12 N11          4.3060     0.1390     0.1890 n3         1 G64      -0.767500
     13 C12          5.1380     0.9000     1.1230 c3         1 G64       0.217800
     14 C13          6.1840     1.7650     0.4240 c3         1 G64      -0.067700
     15 C14          6.9740     2.5240     1.4840 c3         1 G64      -0.088100
     16 C15          7.1050     0.9310    -0.4580 c3         1 G64      -0.088100
     17 C16          3.3590     0.8480    -0.6620 c3         1 G64       0.187800
     18 C17          1.9990     1.1420    -0.0270 c3         1 G64       0.098100
     19 O18          2.0850     2.0190     1.0740 oh         1 G64      -0.589800
     20 C19          0.9830     1.6250    -1.0720 c3         1 G64       0.085700
     21 N20         -0.3070     1.7740    -0.4410 ns         1 G64      -0.565900
     22 C21         -1.4450     1.2370    -0.9140 c          1 G64       0.688700
     23 O22         -1.4810     0.4520    -1.8510 o          1 G64      -0.589100
     24 C32          1.3880     2.9320    -1.7750 c3         1 G64      -0.049100
     25 C33         -0.6490     4.2560    -2.4380 ca         1 G64      -0.118500
     26 C34         -1.6320     4.6080    -3.3540 ca         1 G64      -0.122000
     27 C35         -1.6170     4.0670    -4.6330 ca         1 G64      -0.121000
     28 C36         -0.6140     3.1730    -4.9870 ca         1 G64      -0.122000
     29 C37          0.3620     2.8220    -4.0670 ca         1 G64      -0.118500
     30 C38          0.3580     3.3580    -2.7810 ca         1 G64      -0.083300
     31 C51         -2.7030     1.6400    -0.2070 ca         1 G64      -0.149600
     32 C52         -2.8310     2.8520     0.4690 ca         1 G64      -0.091000
     33 C53         -4.0250     3.2160     1.0810 ca         1 G64      -0.094300
     34 C54         -5.0940     2.3260     1.0260 ca         1 G64      -0.086000
     35 C55         -4.9830     1.1150     0.3530 ca         1 G64      -0.147600
     36 C56         -3.7950     0.7860    -0.2870 ca         1 G64      -0.032000
     37 C57         -4.1740     4.5440     1.7630 c3         1 G64      -0.045800
     38 C58         -6.1610     0.2060     0.1780 c          1 G64       0.682700
     39 O59         -6.4520    -0.1810    -0.9470 o          1 G64      -0.600100
     40 N60         -6.8810    -0.1240     1.2660 n          1 G64      -0.466800
     41 C61         -6.4540     0.0580     2.6410 c3         1 G64       0.088300
     42 C62         -8.1110    -0.8820     1.0710 c3         1 G64       0.085700
     43 C63         -7.8820    -2.3520     0.9750 cc         1 G64       0.196300
     44 N64         -7.5320    -3.1100     2.0810 nc         1 G64      -0.686000
     45 C65         -7.4020    -4.3120     1.6410 cd         1 G64       0.489700
     46 O66         -7.6440    -4.4170     0.3250 os         1 G64      -0.356800
     47 C67         -7.9500    -3.1610    -0.1040 cd         1 G64       0.200700
     48 C68         -8.2650    -2.9680    -1.5350 c3         1 G64      -0.120400
     49 C69         -7.0450    -5.5380     2.3890 c3         1 G64      -0.117400
     50 H1           9.2840    -4.9390    -1.5310 h1         1 G64       0.047033
     51 H2          10.0540    -3.3380    -1.4340 h1         1 G64       0.047033
     52 H3          10.8060    -4.7370    -0.6470 h1         1 G64       0.047033
     53 H4           7.9600    -3.4840     2.4860 ha         1 G64       0.145500
     54 H5           5.7620    -2.4080     2.6570 ha         1 G64       0.153000
     55 H6           5.5660    -2.1650    -1.6300 ha         1 G64       0.153000
     56 H7           7.7310    -3.2390    -1.8050 ha         1 G64       0.145500
     57 H8           4.5140     1.5060     1.7840 h1         1 G64       0.054200
     58 H9           5.6730     0.1960     1.7660 h1         1 G64       0.054200
     59 H10          5.6760     2.5070    -0.2020 hc         1 G64       0.044700
     60 H11          7.5330     1.8360     2.1230 hc         1 G64       0.036200
     61 H12          7.6920     3.2030     1.0220 hc         1 G64       0.036200
     62 H13          6.3200     3.1170     2.1260 hc         1 G64       0.036200
     63 H14          7.8800     1.5560    -0.9050 hc         1 G64       0.036200
     64 H15          7.6000     0.1510     0.1260 hc         1 G64       0.036200
     65 H16          6.5650     0.4430    -1.2690 hc         1 G64       0.036200
     66 H17          3.8540     1.7760    -0.9540 h1         1 G64       0.069200
     67 H18          3.2140     0.2870    -1.5850 h1         1 G64       0.069200
     68 H19          1.5960     0.2100     0.3790 h1         1 G64       0.099700
     69 H20          2.5050     2.8410     0.7990 ho         1 G64       0.398000
     70 H21          0.8870     0.8410    -1.8260 h1         1 G64       0.101700
     71 H22         -0.3410     2.3520     0.3840 hn         1 G64       0.320500
     72 H23          1.5260     3.7260    -1.0350 hc         1 G64       0.045200
     73 H24          2.3500     2.7880    -2.2720 hc         1 G64       0.045200
     74 H26         -2.4080     5.3060    -3.0690 ha         1 G64       0.130500
     75 H27         -2.3780     4.3440    -5.3500 ha         1 G64       0.131000
     76 H28         -0.5930     2.7500    -5.9840 ha         1 G64       0.130500
     77 H29          1.1410     2.1220    -4.3500 ha         1 G64       0.123500
     78 H30         -2.0050     3.5530     0.5020 ha         1 G64       0.126000
     79 H31         -6.0300     2.5990     1.5000 ha         1 G64       0.136000
     80 H32         -3.7160    -0.1440    -0.8340 ha         1 G64       0.171000
     81 H33         -4.7900     5.2200     1.1680 hc         1 G64       0.043367
     82 H34         -4.6580     4.4380     2.7340 hc         1 G64       0.043367
     83 H35         -3.2090     5.0250     1.9160 hc         1 G64       0.043367
     84 H36         -7.0300     0.8410     3.1370 h1         1 G64       0.046700
     85 H37         -6.5980    -0.8720     3.1890 h1         1 G64       0.046700
     86 H38         -5.4000     0.3130     2.6970 h1         1 G64       0.046700
     87 H39         -8.7630    -0.6650     1.9190 h1         1 G64       0.065200
     88 H40         -8.6180    -0.5200     0.1790 h1         1 G64       0.065200
     89 H41         -7.4130    -3.2220    -2.1700 hc         1 G64       0.062700
     90 H42         -9.1080    -3.5860    -1.8470 hc         1 G64       0.062700
     91 H43         -8.5160    -1.9280    -1.7220 hc         1 G64       0.062700
     92 H44         -6.1410    -5.9980     1.9880 hc         1 G64       0.063367
     93 H45         -6.8730    -5.2890     3.4330 hc         1 G64       0.063367
     94 H46         -7.8440    -6.2790     2.3370 hc         1 G64       0.063367
     95 H25         -0.6630     4.6870    -1.4440 ha         1 G64       0.123500
@<TRIPOS>BOND
     1     1     2 1   
     2     1     4 ar  
     3     1     8 ar  
     4     2     3 1   
     5     3    50 1   
     6     3    51 1   
     7     3    52 1   
     8     4     5 ar  
     9     4    53 1   
    10     5     6 ar  
    11     5    54 1   
    12     6     7 ar  
    13     6     9 1   
    14     7     8 ar  
    15     7    55 1   
    16     8    56 1   
    17     9    10 2   
    18     9    11 2   
    19     9    12 1   
    20    12    13 1   
    21    12    17 1   
    22    13    14 1   
    23    13    57 1   
    24    13    58 1   
    25    14    15 1   
    26    14    16 1   
    27    14    59 1   
    28    15    60 1   
    29    15    61 1   
    30    15    62 1   
    31    16    63 1   
    32    16    64 1   
    33    16    65 1   
    34    17    18 1   
    35    17    66 1   
    36    17    67 1   
    37    18    19 1   
    38    18    20 1   
    39    18    68 1   
    40    19    69 1   
    41    20    21 1   
    42    20    24 1   
    43    20    70 1   
    44    21    22 1   
    45    21    71 1   
    46    22    23 2   
    47    22    31 1   
    48    24    30 1   
    49    24    72 1   
    50    24    73 1   
    51    25    26 ar  
    52    25    30 ar  
    53    25    95 1   
    54    26    27 ar  
    55    26    74 1   
    56    27    28 ar  
    57    27    75 1   
    58    28    29 ar  
    59    28    76 1   
    60    29    30 ar  
    61    29    77 1   
    62    31    32 ar  
    63    31    36 ar  
    64    32    33 ar  
    65    32    78 1   
    66    33    34 ar  
    67    33    37 1   
    68    34    35 ar  
    69    34    79 1   
    70    35    36 ar  
    71    35    38 1   
    72    36    80 1   
    73    37    81 1   
    74    37    82 1   
    75    37    83 1   
    76    38    39 2   
    77    38    40 1   
    78    40    41 1   
    79    40    42 1   
    80    41    84 1   
    81    41    85 1   
    82    41    86 1   
    83    42    43 1   
    84    42    87 1   
    85    42    88 1   
    86    43    44 1   
    87    43    47 2   
    88    44    45 2   
    89    45    46 1   
    90    45    49 1   
    91    46    47 1   
    92    47    48 1   
    93    48    89 1   
    94    48    90 1   
    95    48    91 1   
    96    49    92 1   
    97    49    93 1   
    98    49    94 1   
@<TRIPOS>SUBSTRUCTURE
     1 G64         1 TEMP              0 ****  ****    0 ROOT
