@<TRIPOS>MOLECULE
G64
   95    98     1     0     0
SMALL
No Charge or Current Charge


@<TRIPOS>ATOM
      1 C2           8.6920    -3.1530     0.8390 ca         1 G64       0.197100
      2 O39          9.9510    -3.5940     1.1910 os         1 G64      -0.334100
      3 C40         11.0550    -3.5790     0.2680 c3         1 G64       0.145900
      4 C3           7.6850    -3.2050     1.8140 ca         1 G64      -0.201000
      5 C4           6.3820    -2.7690     1.5210 ca         1 G64       0.029500
      6 C5           6.0850    -2.2780     0.2360 ca         1 G64      -0.323500
      7 C6           7.0900    -2.2210    -0.7470 ca         1 G64       0.029500
      8 C7           8.3920    -2.6570    -0.4470 ca         1 G64      -0.201000
      9 S8           4.4350    -1.6900    -0.1580 sy         1 G64       1.173600
     10 O9           4.0720    -2.2820    -1.4510 o          1 G64      -0.543500
     11 O10          3.5580    -1.7850     1.0130 o          1 G64      -0.543500
     12 N11          4.7100    -0.0370    -0.4700 n3         1 G64      -0.767500
     13 C12          5.3390     0.7040     0.6530 c3         1 G64       0.217800
     14 C13          6.0310     2.0380     0.2600 c3         1 G64      -0.067700
     15 C14          6.6060     2.7500     1.5050 c3         1 G64      -0.088100
     16 C15          7.1260     1.8330    -0.8150 c3         1 G64      -0.088100
     17 C16          3.6080     0.6640    -1.1950 c3         1 G64       0.187800
     18 C17          2.2960     0.9760    -0.3950 c3         1 G64       0.121300
     19 O18          2.4820     2.0630     0.5430 oh         1 G64      -0.652000
     20 C19          1.0790     1.2820    -1.3210 c3         1 G64       0.085700
     21 N20         -0.1380     1.4580    -0.5140 ns         1 G64      -0.498900
     22 C21         -1.3500     0.8440    -0.7480 c          1 G64       0.621700
     23 O22         -1.4840     0.0100    -1.6330 o          1 G64      -0.589100
     24 C32          1.2760     2.4980    -2.2710 c3         1 G64      -0.049100
     25 C33         -0.8700     3.7740    -2.7790 ca         1 G64      -0.100500
     26 C34         -2.0040     4.0150    -3.5740 ca         1 G64      -0.104000
     27 C35         -2.2200     3.2590    -4.7380 ca         1 G64      -0.103000
     28 C36         -1.3020     2.2610    -5.1060 ca         1 G64      -0.104000
     29 C37         -0.1690     2.0190    -4.3100 ca         1 G64      -0.100500
     30 C38          0.0540     2.7740    -3.1420 ca         1 G64      -0.083300
     31 C51         -2.4990     1.2540     0.1500 ca         1 G64      -0.149600
     32 C52         -2.3520     2.2300     1.1650 ca         1 G64      -0.073000
     33 C53         -3.4460     2.5980     1.9670 ca         1 G64      -0.094300
     34 C54         -4.6970     1.9890     1.7680 ca         1 G64      -0.068000
     35 C55         -4.8630     0.9940     0.7820 ca         1 G64      -0.147600
     36 C56         -3.7640     0.6530    -0.0340 ca         1 G64      -0.014000
     37 C57         -3.2810     3.6700     3.0350 c3         1 G64      -0.045800
     38 C58         -6.1990     0.3290     0.5260 c          1 G64       0.615700
     39 O59         -6.5340     0.0520    -0.6190 o          1 G64      -0.600100
     40 N60         -7.0890     0.1160     1.6080 n          1 G64      -0.399800
     41 C61         -6.5810    -0.1070     2.9840 c3         1 G64       0.088300
     42 C62         -8.4790    -0.3410     1.3430 c3         1 G64       0.085700
     43 C63         -8.5610    -1.7820     0.8820 cc         1 G64       0.196300
     44 N64         -8.2040    -2.8350     1.6820 nc         1 G64      -0.686000
     45 C65         -8.4280    -3.8920     0.9140 cd         1 G64       0.445300
     46 O66         -8.9170    -3.6310    -0.3360 os         1 G64      -0.268000
     47 C67         -8.9930    -2.2750    -0.3230 cd         1 G64       0.156300
     48 C68         -9.5160    -1.5680    -1.5440 c3         1 G64      -0.120400
     49 C69         -8.1880    -5.3070     1.3460 c3         1 G64      -0.117400
     50 H1          10.8400    -4.2040    -0.6070 h1         1 G64       0.047033
     51 H2          11.2660    -2.5570    -0.0710 h1         1 G64       0.047033
     52 H3          11.9590    -3.9700     0.7510 h1         1 G64       0.047033
     53 H4           7.9160    -3.5850     2.8060 ha         1 G64       0.127500
     54 H5           5.6150    -2.8140     2.2930 ha         1 G64       0.135000
     55 H6           6.8670    -1.8300    -1.7400 ha         1 G64       0.135000
     56 H7           9.1490    -2.6000    -1.2220 ha         1 G64       0.127500
     57 H8           4.5970     0.9000     1.4380 h1         1 G64       0.054200
     58 H9           6.1160     0.0880     1.1250 h1         1 G64       0.054200
     59 H10          5.2750     2.7100    -0.1610 hc         1 G64       0.044700
     60 H11          7.3830     2.1390     1.9810 hc         1 G64       0.036200
     61 H12          7.0480     3.7160     1.2320 hc         1 G64       0.036200
     62 H13          5.8160     2.9370     2.2440 hc         1 G64       0.036200
     63 H14          7.5990     2.7870    -1.0750 hc         1 G64       0.036200
     64 H15          7.9050     1.1510    -0.4520 hc         1 G64       0.036200
     65 H16          6.7020     1.4090    -1.7330 hc         1 G64       0.036200
     66 H17          3.9860     1.6070    -1.6100 h1         1 G64       0.069200
     67 H18          3.3250     0.0680    -2.0730 h1         1 G64       0.069200
     68 H19          2.0260     0.0670     0.1580 h1         1 G64       0.099700
     69 H20          2.7940     2.8430     0.0380 ho         1 G64       0.437000
     70 H21          0.9390     0.3980    -1.9590 h1         1 G64       0.101700
     71 H22         -0.0950     2.1050     0.2620 hn         1 G64       0.320500
     72 H23          1.5150     3.3890    -1.6790 hc         1 G64       0.045200
     73 H24          2.1440     2.3210    -2.9170 hc         1 G64       0.045200
     74 H26         -2.7150     4.7870    -3.2860 ha         1 G64       0.112500
     75 H27         -3.0980     3.4450    -5.3530 ha         1 G64       0.113000
     76 H28         -1.4690     1.6740    -6.0060 ha         1 G64       0.112500
     77 H29          0.5340     1.2410    -4.5990 ha         1 G64       0.105500
     78 H30         -1.3990     2.7220     1.3350 ha         1 G64       0.108000
     79 H31         -5.5440     2.3160     2.3670 ha         1 G64       0.118000
     80 H32         -3.8960    -0.0960    -0.8130 ha         1 G64       0.153000
     81 H33         -3.4480     4.6680     2.6150 hc         1 G64       0.043367
     82 H34         -3.9930     3.5300     3.8580 hc         1 G64       0.043367
     83 H35         -2.2730     3.6520     3.4670 hc         1 G64       0.043367
     84 H36         -6.7120     0.8040     3.5810 h1         1 G64       0.046700
     85 H37         -7.1370    -0.9210     3.4660 h1         1 G64       0.046700
     86 H38         -5.5190    -0.3830     2.9650 h1         1 G64       0.046700
     87 H39         -9.0790    -0.2270     2.2550 h1         1 G64       0.065200
     88 H40         -8.9270     0.3090     0.5810 h1         1 G64       0.065200
     89 H41         -8.7080    -1.0500    -2.0720 hc         1 G64       0.062700
     90 H42         -9.9770    -2.2740    -2.2450 hc         1 G64       0.062700
     91 H43        -10.2740    -0.8240    -1.2720 hc         1 G64       0.062700
     92 H44         -7.1510    -5.4430     1.6730 hc         1 G64       0.063367
     93 H45         -8.8460    -5.5760     2.1790 hc         1 G64       0.063367
     94 H46         -8.3770    -6.0070     0.5240 hc         1 G64       0.063367
     95 H25         -0.7140     4.3610    -1.8760 ha         1 G64       0.105500
@<TRIPOS>BOND
     1     1     2 1   
     2     1     4 ar  
     3     1     8 ar  
     4     2     3 1   
     5     3    50 1   
     6     3    51 1   
     7     3    52 1   
     8     4     5 ar  
     9     4    53 1   
    10     5     6 ar  
    11     5    54 1   
    12     6     7 ar  
    13     6     9 1   
    14     7     8 ar  
    15     7    55 1   
    16     8    56 1   
    17     9    10 2   
    18     9    11 2   
    19     9    12 1   
    20    12    13 1   
    21    12    17 1   
    22    13    14 1   
    23    13    57 1   
    24    13    58 1   
    25    14    15 1   
    26    14    16 1   
    27    14    59 1   
    28    15    60 1   
    29    15    61 1   
    30    15    62 1   
    31    16    63 1   
    32    16    64 1   
    33    16    65 1   
    34    17    18 1   
    35    17    66 1   
    36    17    67 1   
    37    18    19 1   
    38    18    20 1   
    39    18    68 1   
    40    19    69 1   
    41    20    21 1   
    42    20    24 1   
    43    20    70 1   
    44    21    22 1   
    45    21    71 1   
    46    22    23 2   
    47    22    31 1   
    48    24    30 1   
    49    24    72 1   
    50    24    73 1   
    51    25    26 ar  
    52    25    30 ar  
    53    25    95 1   
    54    26    27 ar  
    55    26    74 1   
    56    27    28 ar  
    57    27    75 1   
    58    28    29 ar  
    59    28    76 1   
    60    29    30 ar  
    61    29    77 1   
    62    31    32 ar  
    63    31    36 ar  
    64    32    33 ar  
    65    32    78 1   
    66    33    34 ar  
    67    33    37 1   
    68    34    35 ar  
    69    34    79 1   
    70    35    36 ar  
    71    35    38 1   
    72    36    80 1   
    73    37    81 1   
    74    37    82 1   
    75    37    83 1   
    76    38    39 2   
    77    38    40 1   
    78    40    41 1   
    79    40    42 1   
    80    41    84 1   
    81    41    85 1   
    82    41    86 1   
    83    42    43 1   
    84    42    87 1   
    85    42    88 1   
    86    43    44 1   
    87    43    47 2   
    88    44    45 2   
    89    45    46 1   
    90    45    49 1   
    91    46    47 1   
    92    47    48 1   
    93    48    89 1   
    94    48    90 1   
    95    48    91 1   
    96    49    92 1   
    97    49    93 1   
    98    49    94 1   
@<TRIPOS>SUBSTRUCTURE
     1 G64         1 TEMP              0 ****  ****    0 ROOT
