@<TRIPOS>MOLECULE
G65
   66    70     1     0     0
SMALL
bcc


@<TRIPOS>ATOM
      1 CBE         -7.0680    -1.5670     1.1390 c6         1 G65       0.169800
      2 CBF         -8.3080    -1.0280     1.8250 c6         1 G65       0.163800
      3 NBG         -9.4980    -1.6880     1.3280 n3         1 G65      -0.717600
      4 CBJ        -10.6880    -1.2170     1.9980 c3         1 G65       0.153100
      5 CBH         -9.5970    -1.5380    -0.1100 c6         1 G65       0.163800
      6 CBI         -8.3570    -2.0840    -0.7920 c6         1 G65       0.169800
      7 NBD         -7.1780    -1.4040    -0.2960 n3         1 G65      -0.735600
      8 CBC         -5.9730    -1.7730    -0.9970 c3         1 G65       0.216100
      9 CAZ         -4.8670    -0.7610    -0.8330 ca         1 G65      -0.057300
     10 CBA         -3.5360    -1.1530    -0.9340 ca         1 G65      -0.129000
     11 CBB         -2.5100    -0.2250    -0.8430 ca         1 G65      -0.090000
     12 CAY         -5.1490     0.5880    -0.6360 ca         1 G65      -0.129000
     13 CAX         -4.1290     1.5190    -0.5480 ca         1 G65      -0.090000
     14 CAV         -2.7950     1.1250    -0.6400 ca         1 G65      -0.160600
     15 CAU         -1.7470     2.1840    -0.5570 c          1 G65       0.691700
     16 OAW         -1.9980     3.3420    -0.8460 o          1 G65      -0.578100
     17 NAT         -0.5290     1.7610    -0.1310 ns         1 G65      -0.469100
     18 CAO          0.6600     2.4860    -0.0050 ca         1 G65       0.097600
     19 CAN          1.7890     1.7590     0.3740 ca         1 G65      -0.213000
     20 CAP          0.7800     3.8600    -0.2030 ca         1 G65      -0.157000
     21 CAQ          2.0180     4.4630    -0.0230 ca         1 G65      -0.083000
     22 CAR          3.1600     3.7570     0.3260 ca         1 G65      -0.127300
     23 CAS          4.4840     4.4410     0.4880 c3         1 G65      -0.044800
     24 CAM          3.0230     2.3770     0.5170 ca         1 G65       0.177600
     25 NAL          4.1470     1.6210     0.8780 nu         1 G65      -0.753300
     26 CAJ          4.5760     0.4840     0.2780 cc         1 G65       0.717300
     27 NAK          5.6390    -0.1510     0.6590 nd         1 G65      -0.738000
     28 SAI          3.7770    -0.2090    -1.1070 ss         1 G65      -0.214300
     29 CAH          4.9920    -1.4330    -1.1450 cc         1 G65      -0.222400
     30 CAG          5.8880    -1.2360    -0.1420 cd         1 G65       0.456800
     31 CAF          7.0630    -2.0640     0.1480 ca         1 G65      -0.236800
     32 CAA          7.9300    -1.7390     1.1890 ca         1 G65      -0.060000
     33 CAB          9.0320    -2.5430     1.4290 ca         1 G65      -0.255300
     34 CAC          9.2360    -3.6510     0.6220 ca         1 G65       0.404200
     35 NAD          8.4180    -3.9760    -0.3740 nb         1 G65      -0.671000
     36 CAE          7.3680    -3.2030    -0.5990 ca         1 G65       0.414200
     37 H1          -6.1950    -1.0220     1.5060 h1         1 G65       0.039450
     38 H2          -6.9260    -2.6270     1.4140 h1         1 G65       0.039450
     39 H3          -8.2290    -1.1990     2.9020 h1         1 G65       0.038200
     40 H4          -8.3530     0.0650     1.6740 h1         1 G65       0.038200
     41 H6         -10.8740    -0.1410     1.8480 h1         1 G65       0.031033
     42 H7         -11.5620    -1.7600     1.6350 h1         1 G65       0.031033
     43 H8         -10.6070    -1.3920     3.0720 h1         1 G65       0.031033
     44 H9         -10.4740    -2.0840    -0.4670 h1         1 G65       0.038200
     45 H10         -9.7300    -0.4820    -0.4020 h1         1 G65       0.038200
     46 H11         -8.3030    -3.1750    -0.6320 h1         1 G65       0.039450
     47 H12         -8.4390    -1.9190    -1.8690 h1         1 G65       0.039450
     48 H14         -5.6010    -2.7710    -0.7080 h1         1 G65       0.043200
     49 H15         -6.2080    -1.8410    -2.0640 h1         1 G65       0.043200
     50 H16         -3.2930    -2.1960    -1.0940 ha         1 G65       0.144500
     51 H17         -1.4920    -0.5750    -0.9590 ha         1 G65       0.140500
     52 H18         -6.1800     0.9050    -0.5440 ha         1 G65       0.144500
     53 H19         -4.3720     2.5620    -0.3960 ha         1 G65       0.140500
     54 H20         -0.4620     0.7980     0.1590 hn         1 G65       0.321500
     55 H21          1.6930     0.7000     0.5850 ha         1 G65       0.141000
     56 H22         -0.0670     4.4630    -0.4820 ha         1 G65       0.172000
     57 H23          2.0940     5.5330    -0.1760 ha         1 G65       0.136000
     58 H24          4.8320     4.4230     1.5240 hc         1 G65       0.044700
     59 H25          5.2590     3.9710    -0.1200 hc         1 G65       0.044700
     60 H26          4.4150     5.4860     0.1910 hc         1 G65       0.044700
     61 H27          4.8140     2.0360     1.5120 hn         1 G65       0.457800
     62 H28          4.9540    -2.2090    -1.8910 h4         1 G65       0.179000
     63 H29          7.7450    -0.8670     1.8010 ha         1 G65       0.157000
     64 H30          9.7240    -2.3150     2.2280 ha         1 G65       0.142000
     65 H31         10.0890    -4.3000     0.7830 h4         1 G65       0.018100
     66 H32          6.7290    -3.5090    -1.4210 h4         1 G65       0.016100
@<TRIPOS>BOND
     1     1     2 1   
     2     1     7 1   
     3     1    37 1   
     4     1    38 1   
     5     2     3 1   
     6     2    39 1   
     7     2    40 1   
     8     3     4 1   
     9     3     5 1   
    10     4    41 1   
    11     4    42 1   
    12     4    43 1   
    13     5     6 1   
    14     5    44 1   
    15     5    45 1   
    16     6     7 1   
    17     6    46 1   
    18     6    47 1   
    19     7     8 1   
    20     8     9 1   
    21     8    48 1   
    22     8    49 1   
    23     9    10 ar  
    24     9    12 ar  
    25    10    11 ar  
    26    10    50 1   
    27    11    14 ar  
    28    11    51 1   
    29    12    13 ar  
    30    12    52 1   
    31    13    14 ar  
    32    13    53 1   
    33    14    15 1   
    34    15    16 2   
    35    15    17 1   
    36    17    18 1   
    37    17    54 1   
    38    18    19 ar  
    39    18    20 ar  
    40    19    24 ar  
    41    19    55 1   
    42    20    21 ar  
    43    20    56 1   
    44    21    22 ar  
    45    21    57 1   
    46    22    23 1   
    47    22    24 ar  
    48    23    58 1   
    49    23    59 1   
    50    23    60 1   
    51    24    25 1   
    52    25    26 1   
    53    25    61 1   
    54    26    27 2   
    55    26    28 1   
    56    27    30 1   
    57    28    29 1   
    58    29    30 2   
    59    29    62 1   
    60    30    31 1   
    61    31    32 ar  
    62    31    36 ar  
    63    32    33 ar  
    64    32    63 1   
    65    33    34 ar  
    66    33    64 1   
    67    34    35 ar  
    68    34    65 1   
    69    35    36 ar  
    70    36    66 1   
@<TRIPOS>SUBSTRUCTURE
     1 G65         1 TEMP              0 ****  ****    0 ROOT
