@<TRIPOS>MOLECULE
G65
   66    70     1     0     0
SMALL
No Charge or Current Charge


@<TRIPOS>ATOM
      1 CBE         -6.9030    -1.3790     0.9020 c6         1 G65       0.169800
      2 CBF         -8.0400    -1.1940     1.9590 c6         1 G65       0.163800
      3 NBG         -9.2330    -2.0470     1.6680 n3         1 G65      -0.717600
      4 CBJ        -10.3050    -1.8950     2.6740 c3         1 G65       0.153100
      5 CBH         -9.7090    -1.8010     0.2720 c6         1 G65       0.163800
      6 CBI         -8.5730    -1.9880    -0.7860 c6         1 G65       0.169800
      7 NBD         -7.3790    -1.1350    -0.4970 n3         1 G65      -0.735600
      8 CBC         -6.3120    -1.2880    -1.5150 c3         1 G65       0.216100
      9 CAZ         -5.1490    -0.3150    -1.3300 ca         1 G65      -0.057300
     10 CBA         -3.8800    -0.7790    -0.9410 ca         1 G65      -0.111000
     11 CBB         -2.8110     0.1170    -0.7690 ca         1 G65      -0.072000
     12 CAY         -5.3380     1.0610    -1.5440 ca         1 G65      -0.111000
     13 CAX         -4.2730     1.9630    -1.3740 ca         1 G65      -0.072000
     14 CAV         -2.9920     1.5070    -0.9830 ca         1 G65      -0.160600
     15 CAU         -1.8630     2.5100    -0.8070 c          1 G65       0.624700
     16 OAW         -2.0460     3.7070    -1.0020 o          1 G65      -0.578100
     17 NAT         -0.6380     1.9780    -0.4220 ns         1 G65      -0.143000
     18 CAO          0.6280     2.5700    -0.1550 ca         1 G65       0.005000
     19 CAN          1.6870     1.7080     0.1810 ca         1 G65      -0.195000
     20 CAP          0.8730     3.9580    -0.2010 ca         1 G65      -0.139000
     21 CAQ          2.1520     4.4640     0.0880 ca         1 G65      -0.065000
     22 CAR          3.2090     3.5950     0.4220 ca         1 G65      -0.127300
     23 CAS          4.5880     4.1780     0.7280 c3         1 G65      -0.044800
     24 CAM          2.9710     2.2040     0.4580 ca         1 G65       0.316000
     25 NAL          3.9940     1.3250     0.7940 nu         1 G65      -0.946900
     26 CAJ          4.4320     0.1790     0.2340 cc         1 G65       0.717300
     27 NAK          5.5710    -0.2690     0.6890 nd         1 G65      -0.738000
     28 SAI          3.6860    -0.6890    -1.0800 ss         1 G65      -0.069400
     29 CAH          5.0250    -1.7970    -0.9860 cc         1 G65      -0.284000
     30 CAG          5.9190    -1.4200    -0.0040 cd         1 G65       0.391500
     31 CAF          7.1640    -2.1360     0.3280 ca         1 G65      -0.171500
     32 CAA          8.0270    -1.6830     1.3500 ca         1 G65      -0.042000
     33 CAB          9.1980    -2.4110     1.6150 ca         1 G65      -0.172000
     34 CAC          9.4760    -3.5610     0.8620 ca         1 G65       0.338900
     35 NAD          8.6600    -4.0070    -0.1190 nb         1 G65      -0.671000
     36 CAE          7.5310    -3.3040    -0.3740 ca         1 G65       0.348900
     37 H1          -6.0830    -0.6910     1.1560 h1         1 G65       0.039450
     38 H2          -6.5050    -2.4000     0.9920 h1         1 G65       0.039450
     39 H3          -7.6360    -1.4320     2.9530 h1         1 G65       0.038200
     40 H4          -8.3310    -0.1330     1.9750 h1         1 G65       0.038200
     41 H6         -10.6900    -0.8660     2.6850 h1         1 G65       0.031033
     42 H7         -11.1410    -2.5730     2.4550 h1         1 G65       0.031033
     43 H8          -9.9310    -2.1330     3.6780 h1         1 G65       0.031033
     44 H9         -10.5340    -2.4850     0.0250 h1         1 G65       0.038200
     45 H10        -10.1040    -0.7780     0.1820 h1         1 G65       0.038200
     46 H11         -8.2830    -3.0490    -0.8020 h1         1 G65       0.039450
     47 H12         -8.9790    -1.7510    -1.7800 h1         1 G65       0.039450
     48 H14         -5.9260    -2.3170    -1.5020 h1         1 G65       0.043200
     49 H15         -6.7310    -1.1220    -2.5170 h1         1 G65       0.043200
     50 H16         -3.7190    -1.8420    -0.7690 ha         1 G65       0.126500
     51 H17         -1.8490    -0.2900    -0.4670 ha         1 G65       0.122500
     52 H18         -6.3160     1.4330    -1.8400 ha         1 G65       0.126500
     53 H19         -4.4520     3.0220    -1.5460 ha         1 G65       0.122500
     54 H20         -0.6440     0.9750    -0.3070 hn         1 G65       0.155000
     55 H21          1.5030     0.6390     0.2410 ha         1 G65       0.123000
     56 H22          0.0900     4.6660    -0.4500 ha         1 G65       0.154000
     57 H23          2.3180     5.5380     0.0520 ha         1 G65       0.118000
     58 H24          4.8790     3.9800     1.7660 hc         1 G65       0.044700
     59 H25          5.3540     3.7460     0.0730 hc         1 G65       0.044700
     60 H26          4.6130     5.2640     0.5830 hc         1 G65       0.044700
     61 H27          4.7520     1.7250     1.3340 hn         1 G65       0.513000
     62 H28          5.0620    -2.6410    -1.6600 h4         1 G65       0.161000
     63 H29          7.8020    -0.7890     1.9280 ha         1 G65       0.139000
     64 H30          9.8850    -2.0930     2.3940 ha         1 G65       0.124000
     65 H31         10.3770    -4.1440     1.0490 h4         1 G65       0.018100
     66 H32          6.9090    -3.7030    -1.1720 h4         1 G65       0.016100
@<TRIPOS>BOND
     1     1     2 1   
     2     1     7 1   
     3     1    37 1   
     4     1    38 1   
     5     2     3 1   
     6     2    39 1   
     7     2    40 1   
     8     3     4 1   
     9     3     5 1   
    10     4    41 1   
    11     4    42 1   
    12     4    43 1   
    13     5     6 1   
    14     5    44 1   
    15     5    45 1   
    16     6     7 1   
    17     6    46 1   
    18     6    47 1   
    19     7     8 1   
    20     8     9 1   
    21     8    48 1   
    22     8    49 1   
    23     9    10 ar  
    24     9    12 ar  
    25    10    11 ar  
    26    10    50 1   
    27    11    14 ar  
    28    11    51 1   
    29    12    13 ar  
    30    12    52 1   
    31    13    14 ar  
    32    13    53 1   
    33    14    15 1   
    34    15    16 2   
    35    15    17 1   
    36    17    18 1   
    37    17    54 1   
    38    18    19 ar  
    39    18    20 ar  
    40    19    24 ar  
    41    19    55 1   
    42    20    21 ar  
    43    20    56 1   
    44    21    22 ar  
    45    21    57 1   
    46    22    23 1   
    47    22    24 ar  
    48    23    58 1   
    49    23    59 1   
    50    23    60 1   
    51    24    25 1   
    52    25    26 1   
    53    25    61 1   
    54    26    27 2   
    55    26    28 1   
    56    27    30 1   
    57    28    29 1   
    58    29    30 2   
    59    29    62 1   
    60    30    31 1   
    61    31    32 ar  
    62    31    36 ar  
    63    32    33 ar  
    64    32    63 1   
    65    33    34 ar  
    66    33    64 1   
    67    34    35 ar  
    68    34    65 1   
    69    35    36 ar  
    70    36    66 1   
@<TRIPOS>SUBSTRUCTURE
     1 G65         1 TEMP              0 ****  ****    0 ROOT
