@<TRIPOS>MOLECULE
G67
   91    97     1     0     0
SMALL
abcg2


@<TRIPOS>ATOM
      1 O2           2.1870    -2.2460    -0.7440 o          1 G67      -0.578100
      2 C21          2.5050    -1.0930    -0.4960 c          1 G67       0.605100
      3 N5           3.6090    -0.7810     0.2200 n          1 G67      -0.416800
      4 C26          3.9530     0.5670     0.6210 c6         1 G67       0.140200
      5 C25          5.4250     0.7530     0.7950 c2         1 G67      -0.238200
      6 C24          6.3360    -0.2170     0.6860 ce         1 G67      -0.039400
      7 C27          7.7810     0.0480     0.8230 ca         1 G67      -0.040800
      8 C32          8.2680     1.1210     1.5750 ca         1 G67      -0.111000
      9 C31          9.6250     1.3670     1.6790 ca         1 G67      -0.078500
     10 C30         10.5500     0.5420     1.0390 ca         1 G67      -0.114500
     11 C33         11.9830     0.8090     1.1550 cc         1 G67       0.587500
     12 N8          12.9010     0.0620     0.5760 nd         1 G67      -0.535800
     13 N7          14.0440     0.6490     0.9270 na         1 G67      -0.054700
     14 C35         15.3180     0.1350     0.4880 c3         1 G67       0.073900
     15 C34         13.7880     1.7110     1.6930 cd         1 G67       0.412400
     16 N6          12.4920     1.8450     1.8600 nc         1 G67      -0.696000
     17 C29         10.0750    -0.5380     0.2980 ca         1 G67      -0.078500
     18 C28          8.7160    -0.7810     0.1980 ca         1 G67      -0.111000
     19 C23          5.8890    -1.6270     0.4080 c6         1 G67      -0.058200
     20 C22          4.4360    -1.8190     0.8050 c6         1 G67       0.097000
     21 C20          1.6700     0.0790    -0.9940 c3         1 G67       0.102800
     22 N4           0.4770    -0.3430    -1.6710 n3         1 G67      -0.716600
     23 C18          0.6600    -0.8990    -3.0130 c5         1 G67       0.175800
     24 C17         -0.5920    -0.4790    -3.7990 c5         1 G67      -0.072400
     25 C19         -0.5240     0.6980    -1.7610 c5         1 G67       0.185800
     26 C16         -1.5320     0.0740    -2.7280 c5         1 G67      -0.009000
     27 S           -2.6640     1.3710    -3.3090 ss         1 G67      -0.425000
     28 C36         -3.7730     0.4210    -4.3730 c3         1 G67       0.041900
     29 C15         -2.3010    -1.0560    -2.0320 c          1 G67       0.624100
     30 O1          -2.1950    -2.2160    -2.3760 o          1 G67      -0.563100
     31 N3          -3.0970    -0.6460    -1.0140 ns         1 G67      -0.147000
     32 C11         -3.9740    -1.4540    -0.2680 ca         1 G67      -0.059000
     33 C10         -5.2020    -0.9320     0.0800 ca         1 G67      -0.093000
     34 C12         -3.5950    -2.7510     0.1550 ca         1 G67      -0.066000
     35 C13         -4.4470    -3.5430     0.8860 ca         1 G67      -0.115000
     36 C14         -5.6950    -3.0100     1.2250 ca         1 G67      -0.054200
     37 C9          -6.0690    -1.7090     0.8570 ca         1 G67      -0.200900
     38 N1          -6.7460    -3.5230     1.9050 na         1 G67      -0.053400
     39 N2          -7.7490    -2.6570     2.0110 nc         1 G67      -0.515100
     40 C8          -7.3830    -1.5530     1.3970 cd         1 G67       0.409500
     41 C6          -8.2740    -0.3980     1.3330 ca         1 G67      -0.187900
     42 C5          -9.6690    -0.5450     1.3020 ca         1 G67      -0.021000
     43 C4         -10.4760     0.5650     1.2660 ca         1 G67      -0.193000
     44 C7          -7.7870     0.8990     1.3340 ca         1 G67       0.393900
     45 N           -8.5570     1.9830     1.2920 nb         1 G67      -0.766000
     46 C3          -9.8630     1.8270     1.2600 ca         1 G67       0.598300
     47 O          -10.6700     2.8870     1.2320 os         1 G67      -0.472300
     48 C1         -10.1170     4.2150     1.2400 c3         1 G67       0.185300
     49 C2          -9.6710     4.6170    -0.1550 c3         1 G67      -0.105100
     50 C          -11.2060     5.1220     1.7760 c3         1 G67      -0.105100
     51 H29          3.6180     1.2840    -0.1300 h1         1 G67       0.047200
     52 H30          3.4410     0.8440     1.5530 h1         1 G67       0.047200
     53 H28          5.7220     1.7760     0.9960 ha         1 G67       0.182000
     54 H34          7.5810     1.7650     2.1070 ha         1 G67       0.114000
     55 H33          9.9700     2.2040     2.2710 ha         1 G67       0.131500
     56 H36         15.3690     0.1400    -0.5980 h1         1 G67       0.060367
     57 H37         16.1050     0.7700     0.8840 h1         1 G67       0.060367
     58 H38         15.4600    -0.8790     0.8540 h1         1 G67       0.060367
     59 H35         14.5600     2.3470     2.0970 h5         1 G67       0.063100
     60 H32         10.7700    -1.1960    -0.2080 ha         1 G67       0.131500
     61 H31          8.3860    -1.6290    -0.3890 ha         1 G67       0.114000
     62 H27          6.0230    -1.8760    -0.6490 hc         1 G67       0.061200
     63 H26          6.5030    -2.3360     0.9700 hc         1 G67       0.061200
     64 H25          4.3440    -1.7810     1.8950 h1         1 G67       0.061700
     65 H24          4.0750    -2.7900     0.4790 h1         1 G67       0.061700
     66 H23          1.3820     0.6920    -0.1340 h1         1 G67       0.046200
     67 H22          2.3010     0.7250    -1.6300 h1         1 G67       0.046200
     68 H19          1.5610    -0.4990    -3.4970 h1         1 G67       0.057200
     69 H18          0.7710    -1.9810    -2.9630 h1         1 G67       0.057200
     70 H17         -0.3550     0.3260    -4.4950 hc         1 G67       0.065700
     71 H16         -1.0250    -1.2950    -4.3730 hc         1 G67       0.065700
     72 H21         -0.9400     0.9290    -0.7790 h1         1 G67       0.050200
     73 H20         -0.1460     1.6410    -2.1910 h1         1 G67       0.050200
     74 H41         -3.2180    -0.1380    -5.1230 h1         1 G67       0.068367
     75 H39         -4.4080    -0.2550    -3.8020 h1         1 G67       0.068367
     76 H40         -4.4120     1.1400    -4.8830 h1         1 G67       0.068367
     77 H15         -3.2410     0.3500    -0.9300 hn         1 G67       0.160000
     78 H12         -5.4850     0.0580    -0.2560 ha         1 G67       0.120000
     79 H13         -2.6150    -3.1300    -0.0920 ha         1 G67       0.146000
     80 H14         -4.1520    -4.5360     1.1960 ha         1 G67       0.125000
     81 H           -6.8220    -4.4290     2.3370 hn         1 G67       0.379000
     82 H10        -10.1100    -1.5330     1.3010 ha         1 G67       0.132000
     83 H9         -11.5530     0.4770     1.2400 ha         1 G67       0.137000
     84 H11         -6.7200     1.0850     1.3900 h4         1 G67       0.019100
     85 H5          -9.2600     4.2370     1.9170 h1         1 G67       0.064700
     86 H8          -8.8690     3.9800    -0.5250 hc         1 G67       0.045533
     87 H7         -10.5050     4.5720    -0.8570 hc         1 G67       0.045533
     88 H6          -9.3010     5.6420    -0.1390 hc         1 G67       0.045533
     89 H3         -11.5270     4.8160     2.7720 hc         1 G67       0.045533
     90 H2         -10.8280     6.1420     1.8470 hc         1 G67       0.045533
     91 H4         -12.0770     5.1350     1.1170 hc         1 G67       0.045533
@<TRIPOS>BOND
     1     1     2 2   
     2     2     3 1   
     3     2    21 1   
     4     3     4 1   
     5     3    20 1   
     6     4     5 1   
     7     4    51 1   
     8     4    52 1   
     9     5     6 2   
    10     5    53 1   
    11     6     7 1   
    12     6    19 1   
    13     7     8 ar  
    14     7    18 ar  
    15     8     9 ar  
    16     8    54 1   
    17     9    10 ar  
    18     9    55 1   
    19    10    11 1   
    20    10    17 ar  
    21    11    12 2   
    22    11    16 1   
    23    12    13 1   
    24    13    14 1   
    25    13    15 1   
    26    14    56 1   
    27    14    57 1   
    28    14    58 1   
    29    15    16 2   
    30    15    59 1   
    31    17    18 ar  
    32    17    60 1   
    33    18    61 1   
    34    19    20 1   
    35    19    62 1   
    36    19    63 1   
    37    20    64 1   
    38    20    65 1   
    39    21    22 1   
    40    21    66 1   
    41    21    67 1   
    42    22    23 1   
    43    22    25 1   
    44    23    24 1   
    45    23    68 1   
    46    23    69 1   
    47    24    26 1   
    48    24    70 1   
    49    24    71 1   
    50    25    26 1   
    51    25    72 1   
    52    25    73 1   
    53    26    27 1   
    54    26    29 1   
    55    27    28 1   
    56    28    74 1   
    57    28    75 1   
    58    28    76 1   
    59    29    30 2   
    60    29    31 1   
    61    31    32 1   
    62    31    77 1   
    63    32    33 ar  
    64    32    34 ar  
    65    33    37 ar  
    66    33    78 1   
    67    34    35 ar  
    68    34    79 1   
    69    35    36 ar  
    70    35    80 1   
    71    36    37 ar  
    72    36    38 1   
    73    37    40 1   
    74    38    39 1   
    75    38    81 1   
    76    39    40 2   
    77    40    41 1   
    78    41    42 ar  
    79    41    44 ar  
    80    42    43 ar  
    81    42    82 1   
    82    43    46 ar  
    83    43    83 1   
    84    44    45 ar  
    85    44    84 1   
    86    45    46 ar  
    87    46    47 1   
    88    47    48 1   
    89    48    49 1   
    90    48    50 1   
    91    48    85 1   
    92    49    86 1   
    93    49    87 1   
    94    49    88 1   
    95    50    89 1   
    96    50    90 1   
    97    50    91 1   
@<TRIPOS>SUBSTRUCTURE
     1 G67         1 TEMP              0 ****  ****    0 ROOT
