@<TRIPOS>MOLECULE
G67
   91    97     1     0     0
SMALL
No Charge or Current Charge


@<TRIPOS>ATOM
      1 O2           2.5850    -2.6950    -1.8270 o          1 G67      -0.578100
      2 C21          2.6960    -1.4850    -1.6440 c          1 G67       0.605100
      3 N5           3.9800    -0.9150    -1.4570 n          1 G67      -0.416800
      4 C26          4.1540     0.4860    -0.9660 c6         1 G67       0.140200
      5 C25          5.4580     0.7460    -0.2300 c2         1 G67      -0.238200
      6 C24          6.5920     0.0750    -0.5110 ce         1 G67      -0.039400
      7 C27          7.8830     0.3210     0.1970 ca         1 G67      -0.040800
      8 C32          7.9020     0.5780     1.5800 ca         1 G67      -0.111000
      9 C31          9.1160     0.8100     2.2500 ca         1 G67      -0.078500
     10 C30         10.3460     0.7920     1.5510 ca         1 G67      -0.114500
     11 C33         11.6260     1.0350     2.2460 cc         1 G67       0.587500
     12 N8          12.7960     1.0270     1.6290 nd         1 G67      -0.535800
     13 N7          13.6450     1.2940     2.6680 na         1 G67      -0.054700
     14 C35         15.1000     1.3900     2.4810 c3         1 G67       0.073900
     15 C34         12.9340     1.4470     3.8490 cd         1 G67       0.412400
     16 N6          11.6500     1.2840     3.5890 nc         1 G67      -0.696000
     17 C29         10.3180     0.5350     0.1610 ca         1 G67      -0.078500
     18 C28          9.1030     0.3030    -0.5060 ca         1 G67      -0.111000
     19 C23          6.5340    -0.9960    -1.5930 c6         1 G67      -0.058200
     20 C22          5.2020    -1.7750    -1.5120 c6         1 G67       0.097000
     21 C20          1.4550    -0.5260    -1.6570 c3         1 G67       0.102800
     22 N4           0.1560    -1.0280    -2.2110 n3         1 G67      -0.716600
     23 C18          0.1710    -1.4120    -3.6460 c5         1 G67       0.175800
     24 C17         -1.3390    -1.5770    -4.0050 c5         1 G67      -0.072400
     25 C19         -0.9860    -0.1000    -2.1060 c5         1 G67       0.185800
     26 C16         -2.0910    -0.9560    -2.7750 c5         1 G67      -0.009000
     27 S           -3.4630     0.1770    -3.4070 ss         1 G67      -0.425000
     28 C36         -4.5940    -1.0210    -4.2570 c3         1 G67       0.041900
     29 C15         -2.5870    -2.0480    -1.7600 c          1 G67       0.624100
     30 O1          -2.2610    -3.2320    -1.7220 o          1 G67      -0.563100
     31 N3          -3.5800    -1.4850    -0.9650 ns         1 G67      -0.147000
     32 C11         -4.3710    -2.0110     0.0920 ca         1 G67      -0.059000
     33 C10         -5.4510    -1.2220     0.5500 ca         1 G67      -0.093000
     34 C12         -4.1190    -3.2740     0.6990 ca         1 G67      -0.066000
     35 C13         -4.9520    -3.7520     1.7340 ca         1 G67      -0.115000
     36 C14         -6.0090    -2.9380     2.1540 ca         1 G67      -0.054200
     37 C9          -6.2370    -1.7170     1.6050 ca         1 G67      -0.200900
     38 N1          -6.9870    -3.1880     3.1000 na         1 G67      -0.053400
     39 N2          -7.8870    -2.1090     3.1690 nc         1 G67      -0.515100
     40 C8          -7.4160    -1.2160     2.2850 cd         1 G67       0.409500
     41 C6          -8.0590     0.0840     2.0620 ca         1 G67      -0.187900
     42 C5          -9.4460     0.2490     2.2310 ca         1 G67      -0.021000
     43 C4          -9.9890     1.5300     2.0550 ca         1 G67      -0.193000
     44 C7          -7.2850     1.2250     1.7910 ca         1 G67       0.393900
     45 N           -7.8080     2.4600     1.6250 nb         1 G67      -0.766000
     46 C3          -9.1460     2.6030     1.7370 ca         1 G67       0.598300
     47 O           -9.7220     3.8440     1.5930 os         1 G67      -0.472300
     48 C1          -9.0190     4.9550     1.0020 c3         1 G67       0.185300
     49 C2          -8.9570     4.7380    -0.5270 c3         1 G67      -0.105100
     50 C           -9.8060     6.2250     1.3770 c3         1 G67      -0.105100
     51 H29          4.0860     1.1680    -1.8260 h1         1 G67       0.047200
     52 H30          3.3290     0.7400    -0.2860 h1         1 G67       0.047200
     53 H28          5.4330     1.5260     0.5300 ha         1 G67       0.182000
     54 H34          6.9740     0.5870     2.1460 ha         1 G67       0.114000
     55 H33          9.0910     1.0010     3.3210 ha         1 G67       0.131500
     56 H36         15.3270     2.1930     1.7680 h1         1 G67       0.060367
     57 H37         15.5870     1.6100     3.4380 h1         1 G67       0.060367
     58 H38         15.4850     0.4400     2.0910 h1         1 G67       0.060367
     59 H35         13.4010     1.6640     4.8030 h5         1 G67       0.063100
     60 H32         11.2410     0.5150    -0.4150 ha         1 G67       0.131500
     61 H31          9.1130     0.1170    -1.5770 ha         1 G67       0.114000
     62 H27          6.6280    -0.5230    -2.5800 hc         1 G67       0.061200
     63 H26          7.3720    -1.6990    -1.4940 hc         1 G67       0.061200
     64 H25          5.2180    -2.4050    -0.6110 h1         1 G67       0.061700
     65 H24          5.1360    -2.4500    -2.3770 h1         1 G67       0.061700
     66 H23          1.3030    -0.2130    -0.6160 h1         1 G67       0.046200
     67 H22          1.7540     0.3710    -2.2150 h1         1 G67       0.046200
     68 H19          0.6240    -0.6220    -4.2610 h1         1 G67       0.057200
     69 H18          0.7360    -2.3380    -3.8250 h1         1 G67       0.057200
     70 H17         -1.5560    -1.0440    -4.9370 hc         1 G67       0.065700
     71 H16         -1.6070    -2.6250    -4.1780 hc         1 G67       0.065700
     72 H21         -1.2270     0.1620    -1.0660 h1         1 G67       0.050200
     73 H20         -0.8010     0.8320    -2.6610 h1         1 G67       0.050200
     74 H41         -4.0630    -1.5290    -5.0720 h1         1 G67       0.068367
     75 H39         -4.9590    -1.7700    -3.5430 h1         1 G67       0.068367
     76 H40         -5.4530    -0.4820    -4.6760 h1         1 G67       0.068367
     77 H15         -3.7790    -0.5170    -1.1860 hn         1 G67       0.160000
     78 H12         -5.6720    -0.2660     0.0810 ha         1 G67       0.120000
     79 H13         -3.2900    -3.8980     0.3800 ha         1 G67       0.146000
     80 H14         -4.7780    -4.7260     2.1850 ha         1 G67       0.125000
     81 H           -7.0880    -4.0260     3.6710 hn         1 G67       0.379000
     82 H10        -10.0880    -0.5940     2.4810 ha         1 G67       0.132000
     83 H9         -11.0560     1.6990     2.1630 ha         1 G67       0.137000
     84 H11         -6.2000     1.1630     1.7260 h4         1 G67       0.019100
     85 H5          -8.0020     5.0490     1.4070 h1         1 G67       0.064700
     86 H8          -8.3590     3.8550    -0.7770 hc         1 G67       0.045533
     87 H7          -9.9630     4.6060    -0.9430 hc         1 G67       0.045533
     88 H6          -8.4950     5.6040    -1.0160 hc         1 G67       0.045533
     89 H3          -9.8420     6.3460     2.4660 hc         1 G67       0.045533
     90 H2          -9.3260     7.1130     0.9520 hc         1 G67       0.045533
     91 H4         -10.8350     6.1740     0.9990 hc         1 G67       0.045533
@<TRIPOS>BOND
     1     1     2 2   
     2     2     3 1   
     3     2    21 1   
     4     3     4 1   
     5     3    20 1   
     6     4     5 1   
     7     4    51 1   
     8     4    52 1   
     9     5     6 2   
    10     5    53 1   
    11     6     7 1   
    12     6    19 1   
    13     7     8 ar  
    14     7    18 ar  
    15     8     9 ar  
    16     8    54 1   
    17     9    10 ar  
    18     9    55 1   
    19    10    11 1   
    20    10    17 ar  
    21    11    12 2   
    22    11    16 1   
    23    12    13 1   
    24    13    14 1   
    25    13    15 1   
    26    14    56 1   
    27    14    57 1   
    28    14    58 1   
    29    15    16 2   
    30    15    59 1   
    31    17    18 ar  
    32    17    60 1   
    33    18    61 1   
    34    19    20 1   
    35    19    62 1   
    36    19    63 1   
    37    20    64 1   
    38    20    65 1   
    39    21    22 1   
    40    21    66 1   
    41    21    67 1   
    42    22    23 1   
    43    22    25 1   
    44    23    24 1   
    45    23    68 1   
    46    23    69 1   
    47    24    26 1   
    48    24    70 1   
    49    24    71 1   
    50    25    26 1   
    51    25    72 1   
    52    25    73 1   
    53    26    27 1   
    54    26    29 1   
    55    27    28 1   
    56    28    74 1   
    57    28    75 1   
    58    28    76 1   
    59    29    30 2   
    60    29    31 1   
    61    31    32 1   
    62    31    77 1   
    63    32    33 ar  
    64    32    34 ar  
    65    33    37 ar  
    66    33    78 1   
    67    34    35 ar  
    68    34    79 1   
    69    35    36 ar  
    70    35    80 1   
    71    36    37 ar  
    72    36    38 1   
    73    37    40 1   
    74    38    39 1   
    75    38    81 1   
    76    39    40 2   
    77    40    41 1   
    78    41    42 ar  
    79    41    44 ar  
    80    42    43 ar  
    81    42    82 1   
    82    43    46 ar  
    83    43    83 1   
    84    44    45 ar  
    85    44    84 1   
    86    45    46 ar  
    87    46    47 1   
    88    47    48 1   
    89    48    49 1   
    90    48    50 1   
    91    48    85 1   
    92    49    86 1   
    93    49    87 1   
    94    49    88 1   
    95    50    89 1   
    96    50    90 1   
    97    50    91 1   
@<TRIPOS>SUBSTRUCTURE
     1 G67         1 TEMP              0 ****  ****    0 ROOT
