@<TRIPOS>MOLECULE
G68
   36    38     1     0     0
SMALL
No Charge or Current Charge


@<TRIPOS>ATOM
      1 C10          0.2290    -2.6290    -0.8360 ca         1 G68      -0.074000
      2 C15          3.4460     0.4610    -1.2240 c6         1 G68      -0.107400
      3 O01         -5.8740    -0.4870     0.7840 oh         1 G68      -0.535100
      4 C02         -4.7170     0.1810     0.5120 ca         1 G68       0.132100
      5 C03         -4.7230     1.5800     0.4510 ca         1 G68      -0.134000
      6 C04         -3.5330     2.2720     0.1800 ca         1 G68      -0.085000
      7 C05         -2.3390     1.5620    -0.0320 ca         1 G68      -0.106000
      8 C06         -2.3020     0.1400     0.0170 cp         1 G68      -0.106500
      9 C07         -3.5250    -0.5320     0.3000 ca         1 G68      -0.192000
     10 C08         -1.0150    -0.6180    -0.2130 cp         1 G68       0.412500
     11 C09         -0.9950    -1.9720    -0.6350 ca         1 G68      -0.154000
     12 C11          1.4090    -1.9070    -0.6100 ca         1 G68      -0.157000
     13 C12          1.3220    -0.5630    -0.2010 ca         1 G68       0.367300
     14 N13          0.1390     0.0630    -0.0120 nb         1 G68      -0.681000
     15 C14          2.5770     0.2870     0.0550 c6         1 G68      -0.118000
     16 C16          4.7270     1.2730    -0.9140 c6         1 G68       0.154600
     17 O17          5.4620     0.6420     0.1570 os         1 G68      -0.451000
     18 C18          4.7320     0.5660     1.4010 c6         1 G68       0.154600
     19 C19          3.4510    -0.2820     1.2110 c6         1 G68      -0.107400
     20 H26          0.2620    -3.6670    -1.1600 ha         1 G68       0.119000
     21 H29          2.8670     0.9690    -2.0070 hc         1 G68       0.052950
     22 H20         -5.6830    -1.4490     0.7880 ho         1 G68       0.463000
     23 H21         -5.6470     2.1290     0.6160 ha         1 G68       0.129000
     24 H22         -3.5350     3.3590     0.1330 ha         1 G68       0.116000
     25 H23         -1.4330     2.1240    -0.2450 ha         1 G68       0.135000
     26 H24         -3.5450    -1.6160     0.3710 ha         1 G68       0.110000
     27 H25         -1.9200    -2.5070    -0.8210 ha         1 G68       0.123000
     28 H27          2.3770    -2.3780    -0.7550 ha         1 G68       0.126000
     29 H28          2.2520     1.2920     0.3630 hc         1 G68       0.073700
     30 H32          5.3670     1.3220    -1.8070 h1         1 G68       0.045200
     31 H31          4.4680     2.3010    -0.6210 h1         1 G68       0.045200
     32 H33          5.3760     0.1090     2.1670 h1         1 G68       0.045200
     33 H34          4.4730     1.5820     1.7340 h1         1 G68       0.045200
     34 H35          2.8760    -0.2990     2.1460 hc         1 G68       0.052950
     35 H36          3.7370    -1.3220     1.0010 hc         1 G68       0.052950
     36 H30          3.7310    -0.5180    -1.6320 hc         1 G68       0.052950
@<TRIPOS>BOND
     1     1    11 ar  
     2     1    12 ar  
     3     1    20 1   
     4     2    15 1   
     5     2    16 1   
     6     2    21 1   
     7     2    36 1   
     8     3     4 1   
     9     3    22 1   
    10     4     5 ar  
    11     4     9 ar  
    12     5     6 ar  
    13     5    23 1   
    14     6     7 ar  
    15     6    24 1   
    16     7     8 ar  
    17     7    25 1   
    18     8     9 ar  
    19     8    10 1   
    20     9    26 1   
    21    10    11 ar  
    22    10    14 ar  
    23    11    27 1   
    24    12    13 ar  
    25    12    28 1   
    26    13    14 ar  
    27    13    15 1   
    28    15    19 1   
    29    15    29 1   
    30    16    17 1   
    31    16    30 1   
    32    16    31 1   
    33    17    18 1   
    34    18    19 1   
    35    18    32 1   
    36    18    33 1   
    37    19    34 1   
    38    19    35 1   
@<TRIPOS>SUBSTRUCTURE
     1 G68         1 TEMP              0 ****  ****    0 ROOT
