@<TRIPOS>MOLECULE
G68
   36    38     1     0     0
SMALL
bcc


@<TRIPOS>ATOM
      1 C10          0.2240    -2.6240    -0.6990 ca         1 G68      -0.092000
      2 C15          3.2910     0.5270    -1.1750 c6         1 G68      -0.107400
      3 O01         -5.8300    -0.3920     0.6320 oh         1 G68      -0.496100
      4 C02         -4.6390     0.2010     0.4120 ca         1 G68       0.132100
      5 C03         -4.6090     1.5920     0.3490 ca         1 G68      -0.152000
      6 C04         -3.4010     2.2340     0.1330 ca         1 G68      -0.103000
      7 C05         -2.2240     1.5150    -0.0220 ca         1 G68      -0.124000
      8 C06         -2.2490     0.1220     0.0320 cp         1 G68      -0.106500
      9 C07         -3.4640    -0.5260     0.2550 ca         1 G68      -0.210000
     10 C08         -0.9950    -0.6450    -0.1490 cp         1 G68       0.477800
     11 C09         -0.9940    -1.9820    -0.5390 ca         1 G68      -0.237300
     12 C11          1.3950    -1.9230    -0.4750 ca         1 G68      -0.240300
     13 C12          1.3100    -0.5850    -0.0950 ca         1 G68       0.432600
     14 N13          0.1400     0.0210     0.0610 nb         1 G68      -0.681000
     15 C14          2.5410     0.2510     0.1330 c6         1 G68      -0.118000
     16 C16          4.5330     1.3600    -0.8990 c6         1 G68       0.131400
     17 O17          5.3840     0.7490     0.0470 os         1 G68      -0.404600
     18 C18          4.7400     0.5300     1.2840 c6         1 G68       0.131400
     19 C19          3.5160    -0.3610     1.1410 c6         1 G68      -0.107400
     20 H26          0.2560    -3.6620    -1.0040 ha         1 G68       0.137000
     21 H29          2.6490     1.0640    -1.8780 hc         1 G68       0.052950
     22 H20         -5.7340    -1.3510     0.6340 ho         1 G68       0.424000
     23 H21         -5.5230     2.1600     0.4710 ha         1 G68       0.147000
     24 H22         -3.3770     3.3150     0.0830 ha         1 G68       0.134000
     25 H23         -1.2900     2.0310    -0.1930 ha         1 G68       0.153000
     26 H24         -3.5050    -1.6070     0.3290 ha         1 G68       0.128000
     27 H25         -1.9140    -2.5140    -0.7350 ha         1 G68       0.141000
     28 H27          2.3560    -2.4050    -0.6030 ha         1 G68       0.144000
     29 H28          2.1960     1.2100     0.5330 hc         1 G68       0.073700
     30 H32          5.1160     1.4950    -1.8110 h1         1 G68       0.045200
     31 H31          4.2290     2.3590    -0.5510 h1         1 G68       0.045200
     32 H33          5.4760     0.0700     1.9460 h1         1 G68       0.045200
     33 H34          4.4440     1.4880     1.7370 h1         1 G68       0.045200
     34 H35          3.0380    -0.4770     2.1170 hc         1 G68       0.052950
     35 H36          3.8300    -1.3580     0.8150 hc         1 G68       0.052950
     36 H30          3.5760    -0.4160    -1.6530 hc         1 G68       0.052950
@<TRIPOS>BOND
     1     1    11 ar  
     2     1    12 ar  
     3     1    20 1   
     4     2    15 1   
     5     2    16 1   
     6     2    21 1   
     7     2    36 1   
     8     3     4 1   
     9     3    22 1   
    10     4     5 ar  
    11     4     9 ar  
    12     5     6 ar  
    13     5    23 1   
    14     6     7 ar  
    15     6    24 1   
    16     7     8 ar  
    17     7    25 1   
    18     8     9 ar  
    19     8    10 1   
    20     9    26 1   
    21    10    11 ar  
    22    10    14 ar  
    23    11    27 1   
    24    12    13 ar  
    25    12    28 1   
    26    13    14 ar  
    27    13    15 1   
    28    15    19 1   
    29    15    29 1   
    30    16    17 1   
    31    16    30 1   
    32    16    31 1   
    33    17    18 1   
    34    18    19 1   
    35    18    32 1   
    36    18    33 1   
    37    19    34 1   
    38    19    35 1   
@<TRIPOS>SUBSTRUCTURE
     1 G68         1 TEMP              0 ****  ****    0 ROOT
