@<TRIPOS>MOLECULE
G69
   50    52     1     0     0
SMALL
No Charge or Current Charge


@<TRIPOS>ATOM
      1 O1          -4.4310     1.3100    -2.4490 oh         1 G69      -0.664000
      2 C3          -4.8920     1.4970    -1.1060 c3         1 G69       0.242900
      3 C6          -4.4420     0.3630    -0.2150 cc         1 G69      -0.157300
      4 C7          -3.6550    -0.7100    -0.5200 cd         1 G69      -0.141000
      5 N9          -3.5510    -1.4410     0.6630 na         1 G69       0.146800
      6 C10         -2.7910    -2.6900     0.8510 c3         1 G69       0.134900
      7 C13         -1.2920    -2.5540     0.5870 ca         1 G69      -0.125300
      8 C14         -0.5730    -1.4410     1.0790 ca         1 G69      -0.056000
      9 C16          0.8030    -1.3450     0.8170 ca         1 G69      -0.098300
     10 C17          1.7320    -0.2470     1.2610 c5         1 G69      -0.046100
     11 C20          2.9450    -0.4730     0.2770 c5         1 G69       0.251500
     12 N22          4.1780    -0.0950     1.0150 n7         1 G69      -0.948300
     13 S24          5.5400     0.1480     0.0800 s6         1 G69       1.216100
     14 C25          5.1340     1.6290    -0.9100 c3         1 G69      -0.292700
     15 C27          4.6760     2.8270    -0.0340 c3         1 G69      -0.074100
     16 C31          6.3100     2.0170    -1.8430 c3         1 G69      -0.074100
     17 O35          6.5950     0.5010     1.0310 o          1 G69      -0.536000
     18 O36          5.6850    -1.0220    -0.7860 o          1 G69      -0.536000
     19 C37          2.9280    -2.0210    -0.0540 c5         1 G69      -0.050100
     20 C40          1.4600    -2.3200     0.0980 ca         1 G69      -0.068300
     21 C41          0.7720    -3.4390    -0.3930 ca         1 G69      -0.096000
     22 C43         -0.6100    -3.5530    -0.1460 ca         1 G69      -0.086000
     23 N45         -4.2500    -0.8620     1.7100 nd         1 G69      -0.469800
     24 C46         -4.7740     0.2200     1.1550 cc         1 G69       0.132300
     25 C47         -5.6490     1.2160     1.9120 c3         1 G69       0.292700
     26 F48         -5.1210     2.4610     1.8920 f          1 G69      -0.110000
     27 F49         -6.8890     1.2990     1.3780 f          1 G69      -0.110000
     28 F50         -5.8070     0.8800     3.2150 f          1 G69      -0.110000
     29 HO1         -4.7590     2.0780    -2.9680 ho         1 G69       0.450000
     30 H3          -4.5040     2.4420    -0.7030 h1         1 G69       0.035700
     31 H3A         -5.9890     1.5520    -1.0890 h1         1 G69       0.035700
     32 H7          -3.1730    -1.0030    -1.4450 h4         1 G69       0.170000
     33 H10         -2.9410    -3.0420     1.8790 h1         1 G69       0.073200
     34 H10A        -3.2190    -3.4450     0.1800 h1         1 G69       0.073200
     35 H14         -1.0710    -0.6640     1.6560 ha         1 G69       0.125000
     36 H17          1.3000     0.7540     1.1510 hc         1 G69       0.060200
     37 H17A         2.0150    -0.3730     2.3120 hc         1 G69       0.060200
     38 H20          2.7810     0.1250    -0.6310 h1         1 G69       0.067700
     39 HN22         4.4880    -0.8590     1.6110 hn         1 G69       0.510000
     40 H25          4.2960     1.3230    -1.5450 h1         1 G69       0.089700
     41 H27          5.4710     3.1390     0.6540 hc         1 G69       0.050533
     42 H27A         4.4150     3.6870    -0.6630 hc         1 G69       0.050533
     43 H27B         3.7900     2.5710     0.5600 hc         1 G69       0.050533
     44 H31          6.5880     1.1780    -2.4940 hc         1 G69       0.050533
     45 H31A         6.0320     2.8610    -2.4860 hc         1 G69       0.050533
     46 H31B         7.1950     2.3080    -1.2630 hc         1 G69       0.050533
     47 H37          3.2960    -2.2310    -1.0640 hc         1 G69       0.071700
     48 H37A         3.5230    -2.6130     0.6500 hc         1 G69       0.071700
     49 H41          1.2970    -4.2080    -0.9560 ha         1 G69       0.122000
     50 H43         -1.1490    -4.4180    -0.5250 ha         1 G69       0.113000
@<TRIPOS>BOND
     1     1     2 1   
     2     1    29 1   
     3     2     3 1   
     4     2    30 1   
     5     2    31 1   
     6     3     4 2   
     7     3    24 1   
     8     4     5 1   
     9     4    32 1   
    10     5     6 1   
    11     5    23 1   
    12     6     7 1   
    13     6    33 1   
    14     6    34 1   
    15     7     8 ar  
    16     7    22 ar  
    17     8     9 ar  
    18     8    35 1   
    19     9    10 1   
    20     9    20 ar  
    21    10    11 1   
    22    10    36 1   
    23    10    37 1   
    24    11    12 1   
    25    11    19 1   
    26    11    38 1   
    27    12    13 1   
    28    12    39 1   
    29    13    14 1   
    30    13    17 2   
    31    13    18 2   
    32    14    15 1   
    33    14    16 1   
    34    14    40 1   
    35    15    41 1   
    36    15    42 1   
    37    15    43 1   
    38    16    44 1   
    39    16    45 1   
    40    16    46 1   
    41    19    20 1   
    42    19    47 1   
    43    19    48 1   
    44    20    21 ar  
    45    21    22 ar  
    46    21    49 1   
    47    22    50 1   
    48    23    24 2   
    49    24    25 1   
    50    25    26 1   
    51    25    27 1   
    52    25    28 1   
@<TRIPOS>SUBSTRUCTURE
     1 G69         1 TEMP              0 ****  ****    0 ROOT
