@<TRIPOS>MOLECULE
G69
   50    52     1     0     0
SMALL
abcg2


@<TRIPOS>ATOM
      1 O1          -6.6800    -1.0260    -1.7390 oh         1 G69      -0.664000
      2 C3          -6.0600     0.1820    -1.3800 c3         1 G69       0.242900
      3 C6          -4.9740    -0.1280    -0.4040 cc         1 G69      -0.157300
      4 C7          -4.4830    -1.3690    -0.0700 cd         1 G69      -0.141000
      5 N9          -3.5180    -1.1760     0.8520 na         1 G69       0.146800
      6 C10         -2.6630    -2.1880     1.4480 c3         1 G69       0.134900
      7 C13         -1.2880    -2.1910     0.8370 ca         1 G69      -0.125300
      8 C14         -0.2710    -1.4240     1.4010 ca         1 G69      -0.056000
      9 C16          0.9800    -1.4100     0.8100 ca         1 G69      -0.098300
     10 C17          2.2200    -0.6840     1.2430 c5         1 G69      -0.046100
     11 C20          3.0750    -0.7050    -0.0340 c5         1 G69       0.251500
     12 N22          4.4900    -0.5980     0.2410 n7         1 G69      -0.948300
     13 S24          5.5090     0.3360    -0.6210 s6         1 G69       1.216100
     14 C25          5.2610     2.0240    -0.0300 c3         1 G69      -0.292700
     15 C27          5.5790     2.1180     1.4530 c3         1 G69      -0.074100
     16 C31          6.0990     2.9760    -0.8720 c3         1 G69      -0.074100
     17 O35          6.8600    -0.0830    -0.2680 o          1 G69      -0.536000
     18 O36          5.0880     0.2990    -2.0170 o          1 G69      -0.536000
     19 C37          2.6570    -1.9890    -0.7720 c5         1 G69      -0.050100
     20 C40          1.2280    -2.1540    -0.3430 ca         1 G69      -0.068300
     21 C41          0.2210    -2.9170    -0.9110 ca         1 G69      -0.096000
     22 C43         -1.0340    -2.9320    -0.3150 ca         1 G69      -0.086000
     23 N45         -3.3330     0.0950     1.1380 nd         1 G69      -0.469800
     24 C46         -4.2080     0.7430     0.3900 cc         1 G69       0.132300
     25 C47         -4.3240     2.2190     0.4750 c3         1 G69       0.292700
     26 F48         -4.3510     2.7760    -0.7460 f          1 G69      -0.110000
     27 F49         -5.4600     2.5970     1.0840 f          1 G69      -0.110000
     28 F50         -3.3140     2.7680     1.1470 f          1 G69      -0.110000
     29 HO1         -7.3470    -0.8350    -2.4050 ho         1 G69       0.450000
     30 H3          -5.6330     0.6920    -2.2530 h1         1 G69       0.035700
     31 H3A         -6.7710     0.8850    -0.9270 h1         1 G69       0.035700
     32 H7          -4.7510    -2.3550    -0.4100 h4         1 G69       0.170000
     33 H10         -2.6150    -1.9960     2.5200 h1         1 G69       0.073200
     34 H10A        -3.1560    -3.1490     1.3080 h1         1 G69       0.073200
     35 H14         -0.4650    -0.8460     2.2970 ha         1 G69       0.125000
     36 H17          2.0370     0.3280     1.6080 hc         1 G69       0.060200
     37 H17A         2.7220    -1.2340     2.0470 hc         1 G69       0.060200
     38 H20          2.7790     0.1470    -0.6500 h1         1 G69       0.067700
     39 HN22         4.8850    -1.1020     1.0230 hn         1 G69       0.510000
     40 H25          4.1980     2.2220    -0.1980 h1         1 G69       0.089700
     41 H27          6.6280     1.9040     1.6490 hc         1 G69       0.050533
     42 H27A         5.3750     3.1330     1.7950 hc         1 G69       0.050533
     43 H27B         4.9660     1.4430     2.0490 hc         1 G69       0.050533
     44 H31          5.8660     2.9010    -1.9320 hc         1 G69       0.050533
     45 H31A         5.8920     3.9990    -0.5590 hc         1 G69       0.050533
     46 H31B         7.1650     2.7950    -0.7330 hc         1 G69       0.050533
     47 H37          2.7920    -1.9110    -1.8510 hc         1 G69       0.071700
     48 H37A         3.2610    -2.8350    -0.4260 hc         1 G69       0.071700
     49 H41          0.4020    -3.4980    -1.8070 ha         1 G69       0.122000
     50 H43         -1.8250    -3.5300    -0.7530 ha         1 G69       0.113000
@<TRIPOS>BOND
     1     1     2 1   
     2     1    29 1   
     3     2     3 1   
     4     2    30 1   
     5     2    31 1   
     6     3     4 2   
     7     3    24 1   
     8     4     5 1   
     9     4    32 1   
    10     5     6 1   
    11     5    23 1   
    12     6     7 1   
    13     6    33 1   
    14     6    34 1   
    15     7     8 ar  
    16     7    22 ar  
    17     8     9 ar  
    18     8    35 1   
    19     9    10 1   
    20     9    20 ar  
    21    10    11 1   
    22    10    36 1   
    23    10    37 1   
    24    11    12 1   
    25    11    19 1   
    26    11    38 1   
    27    12    13 1   
    28    12    39 1   
    29    13    14 1   
    30    13    17 2   
    31    13    18 2   
    32    14    15 1   
    33    14    16 1   
    34    14    40 1   
    35    15    41 1   
    36    15    42 1   
    37    15    43 1   
    38    16    44 1   
    39    16    45 1   
    40    16    46 1   
    41    19    20 1   
    42    19    47 1   
    43    19    48 1   
    44    20    21 ar  
    45    21    22 ar  
    46    21    49 1   
    47    22    50 1   
    48    23    24 2   
    49    24    25 1   
    50    25    26 1   
    51    25    27 1   
    52    25    28 1   
@<TRIPOS>SUBSTRUCTURE
     1 G69         1 TEMP              0 ****  ****    0 ROOT
