@<TRIPOS>MOLECULE
G6A
   47    50     1     0     0
SMALL
abcg2


@<TRIPOS>ATOM
      1 C26          7.6310    -1.7950    -0.8790 c3         1 G6A      -0.120400
      2 C23         -7.8500    -1.0710    -0.0550 cx         1 G6A      -0.131400
      3 C22         -7.1820    -1.4520     1.2300 cx         1 G6A      -0.131400
      4 C19         -6.4530    -1.6030    -0.0660 cx         1 G6A       0.044700
      5 C25          6.5730    -1.1510    -0.0790 cc         1 G6A       0.421300
      6 O21          5.3410    -1.0090    -0.6010 os         1 G6A      -0.286000
      7 N24          6.6310    -0.6690     1.1110 nd         1 G6A      -0.359000
      8 N20          5.3860    -0.1810     1.4060 nd         1 G6A      -0.360000
      9 C18          4.6480    -0.3980     0.3730 cc         1 G6A       0.482500
     10 C15          3.2460    -0.0730     0.1730 ca         1 G6A      -0.137500
     11 C12          2.5910    -0.4010    -1.0110 ca         1 G6A      -0.081000
     12 C6           1.2540    -0.0720    -1.1590 ca         1 G6A      -0.105000
     13 C10          2.5460     0.5740     1.1910 ca         1 G6A      -0.067000
     14 C5           1.2060     0.9060     1.0490 ca         1 G6A      -0.063300
     15 C11          0.4750     1.5960     2.1630 c3         1 G6A      -0.050800
     16 C2           0.5550     0.5790    -0.1480 cp         1 G6A      -0.019000
     17 C1          -0.8750     0.9220    -0.3530 cp         1 G6A      -0.058000
     18 C3          -1.8560     0.0120     0.0120 ca         1 G6A      -0.042000
     19 C7          -3.2060     0.2860    -0.1870 ca         1 G6A      -0.156600
     20 C13         -4.2060    -0.7390     0.2380 c          1 G6A       0.613700
     21 O17         -3.9380    -1.5690     1.0950 o          1 G6A      -0.591100
     22 N16         -5.4040    -0.6890    -0.3760 ns         1 G6A      -0.481900
     23 C14         -3.5630     1.5120    -0.7390 ca         1 G6A      -0.080000
     24 C8          -2.5860     2.4280    -1.0960 ca         1 G6A      -0.124000
     25 C4          -1.2330     2.1540    -0.9170 ca         1 G6A      -0.037300
     26 C9          -0.1910     3.1580    -1.3110 c3         1 G6A      -0.053800
     27 H26          7.8390    -1.2240    -1.7830 hc         1 G6A       0.069367
     28 H26A         8.5420    -1.8600    -0.2900 hc         1 G6A       0.069367
     29 H26B         7.3340    -2.8000    -1.1780 hc         1 G6A       0.069367
     30 H23A        -7.9870    -0.0170    -0.2590 hc         1 G6A       0.077950
     31 H22         -6.8670    -0.6540     1.8900 hc         1 G6A       0.077950
     32 H22A        -7.5010    -2.3550     1.7340 hc         1 G6A       0.077950
     33 H19         -6.3120    -2.6140    -0.4350 h1         1 G6A       0.085700
     34 H12          3.1050    -0.9070    -1.8160 ha         1 G6A       0.127000
     35 H6           0.7440    -0.3270    -2.0790 ha         1 G6A       0.122000
     36 H10          3.0580     0.8250     2.1120 ha         1 G6A       0.139000
     37 H11          0.1200     2.5830     1.8600 hc         1 G6A       0.049367
     38 H11A        -0.4020     1.0280     2.4770 hc         1 G6A       0.049367
     39 H11B         1.1180     1.7280     3.0320 hc         1 G6A       0.049367
     40 H3          -1.5590    -0.9320     0.4510 ha         1 G6A       0.141000
     41 HN16        -5.5120    -0.1150    -1.1960 hn         1 G6A       0.318500
     42 H14         -4.6020     1.7830    -0.8780 ha         1 G6A       0.112000
     43 H8          -2.8840     3.3790    -1.5190 ha         1 G6A       0.116000
     44 H9           0.5470     2.7250    -1.9870 hc         1 G6A       0.048367
     45 H9A         -0.6400     4.0180    -1.8060 hc         1 G6A       0.048367
     46 H9B          0.3570     3.5250    -0.4410 hc         1 G6A       0.048367
     47 H23         -8.6320    -1.7080    -0.4460 hc         1 G6A       0.077950
@<TRIPOS>BOND
     1     1     5 1   
     2     1    27 1   
     3     1    28 1   
     4     1    29 1   
     5     2     3 1   
     6     2     4 1   
     7     2    30 1   
     8     2    47 1   
     9     3     4 1   
    10     3    31 1   
    11     3    32 1   
    12     4    22 1   
    13     4    33 1   
    14     5     6 1   
    15     5     7 2   
    16     6     9 1   
    17     7     8 1   
    18     8     9 2   
    19     9    10 1   
    20    10    11 ar  
    21    10    13 ar  
    22    11    12 ar  
    23    11    34 1   
    24    12    16 ar  
    25    12    35 1   
    26    13    14 ar  
    27    13    36 1   
    28    14    15 1   
    29    14    16 ar  
    30    15    37 1   
    31    15    38 1   
    32    15    39 1   
    33    16    17 1   
    34    17    18 ar  
    35    17    25 ar  
    36    18    19 ar  
    37    18    40 1   
    38    19    20 1   
    39    19    23 ar  
    40    20    21 2   
    41    20    22 1   
    42    22    41 1   
    43    23    24 ar  
    44    23    42 1   
    45    24    25 ar  
    46    24    43 1   
    47    25    26 1   
    48    26    44 1   
    49    26    45 1   
    50    26    46 1   
@<TRIPOS>SUBSTRUCTURE
     1 G6A         1 TEMP              0 ****  ****    0 ROOT
