@<TRIPOS>MOLECULE
G6A
   47    50     1     0     0
SMALL
No Charge or Current Charge


@<TRIPOS>ATOM
      1 C26          7.9490    -1.3540    -0.7640 c3         1 G6A      -0.120400
      2 C23         -8.0450    -0.7880     0.1700 cx         1 G6A      -0.131400
      3 C22         -7.4110    -1.0030     1.5230 cx         1 G6A      -0.131400
      4 C19         -6.6620    -1.3820     0.2700 cx         1 G6A       0.044700
      5 C25          6.7510    -0.9640     0.0470 cc         1 G6A       0.421300
      6 O21          5.5680    -0.7480    -0.5790 os         1 G6A      -0.286000
      7 N24          6.6900    -0.7940     1.3560 nd         1 G6A      -0.359000
      8 N20          5.3920    -0.4430     1.6300 nd         1 G6A      -0.360000
      9 C18          4.7610    -0.4270     0.4650 cc         1 G6A       0.482500
     10 C15          3.3470    -0.1090     0.2160 ca         1 G6A      -0.137500
     11 C12          2.8200    -0.1340    -1.0920 ca         1 G6A      -0.081000
     12 C6           1.4690     0.1690    -1.3180 ca         1 G6A      -0.105000
     13 C10          2.4910     0.2280     1.2870 ca         1 G6A      -0.067000
     14 C5           1.1330     0.5360     1.0660 ca         1 G6A      -0.063300
     15 C11          0.2610     0.9100     2.2620 c3         1 G6A      -0.050800
     16 C2           0.6050     0.5070    -0.2520 cp         1 G6A      -0.019000
     17 C1          -0.8280     0.8160    -0.5310 cp         1 G6A      -0.058000
     18 C3          -1.8330    -0.0820    -0.0990 ca         1 G6A      -0.042000
     19 C7          -3.2030     0.1580    -0.3400 ca         1 G6A      -0.156600
     20 C13         -4.2300    -0.8420     0.1500 c          1 G6A       0.613700
     21 O17         -3.9130    -1.8570     0.7570 o          1 G6A      -0.591100
     22 N16         -5.5520    -0.5550    -0.1200 ns         1 G6A      -0.481900
     23 C14         -3.5630     1.3350    -1.0370 ca         1 G6A      -0.080000
     24 C8          -2.5780     2.2360    -1.4720 ca         1 G6A      -0.124000
     25 C4          -1.2140     1.9910    -1.2260 ca         1 G6A      -0.037300
     26 C9          -0.1850     3.0110    -1.7020 c3         1 G6A      -0.053800
     27 H26          8.1820    -0.5790    -1.5030 hc         1 G6A       0.069367
     28 H26A         8.8280    -1.4910    -0.1250 hc         1 G6A       0.069367
     29 H26B         7.7630    -2.2920    -1.2980 hc         1 G6A       0.069367
     30 H23A        -8.1430     0.2340    -0.1870 hc         1 G6A       0.077950
     31 H22         -7.0760    -0.1260     2.0730 hc         1 G6A       0.077950
     32 H22A        -7.7960    -1.8090     2.1430 hc         1 G6A       0.077950
     33 H19         -6.5400    -2.4420     0.0410 h1         1 G6A       0.085700
     34 H12          3.4520    -0.3900    -1.9410 ha         1 G6A       0.127000
     35 H6           1.0790     0.1390    -2.3320 ha         1 G6A       0.122000
     36 H10          2.8820     0.2530     2.3020 ha         1 G6A       0.139000
     37 H11         -0.3730     1.7760     2.0370 hc         1 G6A       0.049367
     38 H11A        -0.3940     0.0780     2.5450 hc         1 G6A       0.049367
     39 H11B         0.8640     1.1710     3.1400 hc         1 G6A       0.049367
     40 H3          -1.5280    -0.9830     0.4300 ha         1 G6A       0.141000
     41 HN16        -5.7300     0.2990    -0.6320 hn         1 G6A       0.318500
     42 H14         -4.6020     1.5710    -1.2500 ha         1 G6A       0.112000
     43 H8          -2.8810     3.1350    -2.0040 ha         1 G6A       0.116000
     44 H9           0.3410     2.6490    -2.5940 hc         1 G6A       0.048367
     45 H9A         -0.6500     3.9700    -1.9590 hc         1 G6A       0.048367
     46 H9B          0.5640     3.2120    -0.9280 hc         1 G6A       0.048367
     47 H23         -8.8580    -1.4500    -0.1190 hc         1 G6A       0.077950
@<TRIPOS>BOND
     1     1     5 1   
     2     1    27 1   
     3     1    28 1   
     4     1    29 1   
     5     2     3 1   
     6     2     4 1   
     7     2    30 1   
     8     2    47 1   
     9     3     4 1   
    10     3    31 1   
    11     3    32 1   
    12     4    22 1   
    13     4    33 1   
    14     5     6 1   
    15     5     7 2   
    16     6     9 1   
    17     7     8 1   
    18     8     9 2   
    19     9    10 1   
    20    10    11 ar  
    21    10    13 ar  
    22    11    12 ar  
    23    11    34 1   
    24    12    16 ar  
    25    12    35 1   
    26    13    14 ar  
    27    13    36 1   
    28    14    15 1   
    29    14    16 ar  
    30    15    37 1   
    31    15    38 1   
    32    15    39 1   
    33    16    17 1   
    34    17    18 ar  
    35    17    25 ar  
    36    18    19 ar  
    37    18    40 1   
    38    19    20 1   
    39    19    23 ar  
    40    20    21 2   
    41    20    22 1   
    42    22    41 1   
    43    23    24 ar  
    44    23    42 1   
    45    24    25 ar  
    46    24    43 1   
    47    25    26 1   
    48    26    44 1   
    49    26    45 1   
    50    26    46 1   
@<TRIPOS>SUBSTRUCTURE
     1 G6A         1 TEMP              0 ****  ****    0 ROOT
