@<TRIPOS>MOLECULE
G6B
   37    38     1     0     0
SMALL
No Charge or Current Charge


@<TRIPOS>ATOM
      1 N           -5.9900    -1.1230    -1.0940 n8         1 G6B      -0.976200
      2 CA          -5.1840    -0.9680     0.1600 c3         1 G6B       0.082500
      3 C           -3.8760    -0.1000     0.0230 c          1 G6B       0.613100
      4 O           -3.9220     1.0990    -0.2220 o          1 G6B      -0.509100
      5 CB          -6.0980    -0.4410     1.2870 c3         1 G6B      -0.134100
      6 CAG          4.4990    -0.0080     1.5830 ca         1 G6B      -0.072000
      7 CAH          5.2300    -0.4850     0.4810 ca         1 G6B      -0.166000
      8 CAI          3.1020     0.1180     1.4930 ca         1 G6B      -0.108000
      9 CAJ          3.1740    -0.7130    -0.7910 ca         1 G6B      -0.164000
     10 CAN          1.0100     2.4080    -0.2440 c          1 G6B       0.503600
     11 CAP          4.5680    -0.8390    -0.7040 ca         1 G6B       0.291000
     12 CAQ          2.4350    -0.2270     0.3030 ca         1 G6B       0.020000
     13 CAR         -1.4030    -0.3650     0.1590 cc         1 G6B       0.576300
     14 CAS          0.3150     1.0780    -0.0250 cd         1 G6B       0.227500
     15 CAT          0.9850    -0.1150     0.2120 cc         1 G6B      -0.109000
     16 NAK         -1.0750     0.9010    -0.0430 nd         1 G6B      -0.645000
     17 NAL         -2.7030    -0.8070     0.1940 ns         1 G6B      -0.489400
     18 OAE          2.2270     2.5660    -0.2480 o          1 G6B      -0.516100
     19 SAM         -0.0800    -1.4730     0.3870 ss         1 G6B      -0.083400
     20 H1          -6.8640    -1.6200    -0.8810 hn         1 G6B       0.407500
     21 H2          -6.3130    -0.1970    -1.4060 hn         1 G6B       0.407500
     22 H4          -4.8640    -1.9760     0.4570 h1         1 G6B       0.065700
     23 H5          -6.9630    -1.1000     1.4330 hc         1 G6B       0.047700
     24 H6          -5.5470    -0.3960     2.2350 hc         1 G6B       0.047700
     25 H7          -6.4660     0.5670     1.0590 hc         1 G6B       0.047700
     26 H8          -0.5930     3.7180     0.3530 hc         1 G6B       0.068033
     27 H9           0.6830     4.5530    -0.6290 hc         1 G6B       0.068033
     28 H10         -0.5510     3.4230    -1.3260 hc         1 G6B       0.068033
     29 H11          5.0120     0.2630     2.5030 ha         1 G6B       0.114000
     30 H12          6.3100    -0.5810     0.5540 ha         1 G6B       0.112000
     31 H13          2.5360     0.4840     2.3470 ha         1 G6B       0.122000
     32 H14          2.6590    -0.9900    -1.7070 ha         1 G6B       0.114000
     33 H15          6.2710    -1.5330    -1.6640 hn         1 G6B       0.449500
     34 H16          4.7980    -1.6980    -2.5790 hn         1 G6B       0.449500
     35 H17         -2.8310    -1.7940     0.3660 hn         1 G6B       0.328500
     36 NAC          5.2830    -1.3110    -1.7720 nv         1 G6B      -1.077000
     37 CAA          0.1140     3.6290    -0.4800 c3         1 G6B      -0.183100
@<TRIPOS>BOND
     1     1     2 1   
     2     1    20 1   
     3     1    21 1   
     4     2     3 1   
     5     2     5 1   
     6     2    22 1   
     7     3     4 2   
     8     3    17 1   
     9     5    23 1   
    10     5    24 1   
    11     5    25 1   
    12     6     7 ar  
    13     6     8 ar  
    14     6    29 1   
    15     7    11 ar  
    16     7    30 1   
    17     8    12 ar  
    18     8    31 1   
    19     9    11 ar  
    20     9    12 ar  
    21     9    32 1   
    22    10    14 1   
    23    10    18 2   
    24    10    37 1   
    25    11    36 1   
    26    12    15 1   
    27    13    16 2   
    28    13    17 1   
    29    13    19 1   
    30    14    15 2   
    31    14    16 1   
    32    15    19 1   
    33    17    35 1   
    34    26    37 1   
    35    27    37 1   
    36    28    37 1   
    37    33    36 1   
    38    34    36 1   
@<TRIPOS>SUBSTRUCTURE
     1 G6B         1 TEMP              0 ****  ****    0 ROOT
