@<TRIPOS>MOLECULE
G6B
   37    38     1     0     0
SMALL
bcc


@<TRIPOS>ATOM
      1 N           -6.1960    -0.2270    -0.8200 n8         1 G6B      -0.865800
      2 CA          -5.1000    -0.8740    -0.1300 c3         1 G6B       0.082500
      3 C           -3.8740     0.0240    -0.2050 c          1 G6B       0.680100
      4 O           -3.9400     1.2290    -0.2440 o          1 G6B      -0.509100
      5 CB          -5.3730    -1.2060     1.3440 c3         1 G6B      -0.134100
      6 CAG          4.4670     0.3190     1.4420 ca         1 G6B      -0.090000
      7 CAH          5.1270    -0.6080     0.6510 ca         1 G6B      -0.184000
      8 CAI          3.1210     0.5950     1.2540 ca         1 G6B      -0.126000
      9 CAJ          3.0850    -1.0140    -0.5460 ca         1 G6B      -0.182000
     10 CAN          0.7890     2.6430    -0.3930 c          1 G6B       0.503600
     11 CAP          4.4430    -1.2950    -0.3580 ca         1 G6B       0.152600
     12 CAQ          2.4310    -0.0750     0.2460 ca         1 G6B       0.020000
     13 CAR         -1.4220    -0.1390    -0.1210 cc         1 G6B       0.576300
     14 CAS          0.2520     1.2780    -0.1720 cd         1 G6B       0.292800
     15 CAT          0.9940     0.1500     0.0520 cc         1 G6B      -0.029400
     16 NAK         -1.1030     1.0970    -0.2610 nd         1 G6B      -0.645000
     17 NAL         -2.6880    -0.6730    -0.1690 ns         1 G6B      -0.556400
     18 OAE          1.9790     2.8380    -0.5190 o          1 G6B      -0.516100
     19 SAM         -0.0740    -1.2030     0.1550 ss         1 G6B      -0.228300
     20 H1          -6.9880    -0.8570    -0.8380 hn         1 G6B       0.352300
     21 H2          -6.4990     0.5850    -0.2950 hn         1 G6B       0.352300
     22 H4          -4.8830    -1.8070    -0.6580 h1         1 G6B       0.065700
     23 H5          -6.2270    -1.8780     1.4150 hc         1 G6B       0.047700
     24 H6          -4.5250    -1.6940     1.8260 hc         1 G6B       0.047700
     25 H7          -5.6060    -0.2990     1.9040 hc         1 G6B       0.047700
     26 H8          -0.8310     3.7750     0.4370 hc         1 G6B       0.068033
     27 H9           0.2760     4.7100    -0.5950 hc         1 G6B       0.068033
     28 H10         -0.9100     3.5870    -1.2970 hc         1 G6B       0.068033
     29 H11          5.0150     0.8320     2.2220 ha         1 G6B       0.132000
     30 H12          6.1790    -0.8100     0.8190 ha         1 G6B       0.130000
     31 H13          2.6120     1.3080     1.8870 ha         1 G6B       0.140000
     32 H14          2.5410    -1.5260    -1.3320 ha         1 G6B       0.132000
     33 H15          6.0740    -2.1740    -1.1860 hn         1 G6B       0.394300
     34 H16          4.6470    -2.4760    -1.9980 hn         1 G6B       0.394300
     35 H17         -2.7530    -1.6800    -0.1680 hn         1 G6B       0.328500
     36 NAC          5.0730    -2.2590    -1.1110 nv         1 G6B      -0.828200
     37 CAA         -0.2220     3.7510    -0.4670 c3         1 G6B      -0.183100
@<TRIPOS>BOND
     1     1     2 1   
     2     1    20 1   
     3     1    21 1   
     4     2     3 1   
     5     2     5 1   
     6     2    22 1   
     7     3     4 2   
     8     3    17 1   
     9     5    23 1   
    10     5    24 1   
    11     5    25 1   
    12     6     7 ar  
    13     6     8 ar  
    14     6    29 1   
    15     7    11 ar  
    16     7    30 1   
    17     8    12 ar  
    18     8    31 1   
    19     9    11 ar  
    20     9    12 ar  
    21     9    32 1   
    22    10    14 1   
    23    10    18 2   
    24    10    37 1   
    25    11    36 1   
    26    12    15 1   
    27    13    16 2   
    28    13    17 1   
    29    13    19 1   
    30    14    15 2   
    31    14    16 1   
    32    15    19 1   
    33    17    35 1   
    34    26    37 1   
    35    27    37 1   
    36    28    37 1   
    37    33    36 1   
    38    34    36 1   
@<TRIPOS>SUBSTRUCTURE
     1 G6B         1 TEMP              0 ****  ****    0 ROOT
