@<TRIPOS>MOLECULE
G6C
   13    13     1     0     0
SMALL
No Charge or Current Charge


@<TRIPOS>ATOM
      1 OB          44.6540    54.7900   110.5220 oh         1 G6C      -0.523100
      2 CG          43.3470    54.5930   110.7750 cc         1 G6C       0.033100
      3 CD1         42.6070    55.4370   111.5810 cd         1 G6C      -0.146400
      4 CD2         42.7080    53.4550   110.1760 cc         1 G6C      -0.102000
      5 NE1         41.2580    55.1690   111.7970 ns         1 G6C      -0.354100
      6 CE2         41.3660    53.2240   110.4160 cd         1 G6C      -0.288200
      7 CZ          40.5530    54.1080   111.2720 c          1 G6C       0.543200
      8 OH          39.3680    53.9320   111.5020 o          1 G6C      -0.566000
      9 H1          44.9310    55.6010   111.0020 ho         1 G6C       0.462000
     10 H2          42.9880    56.3240   112.0820 h4         1 G6C       0.200000
     11 H3          43.2930    52.7920   109.5420 ha         1 G6C       0.202000
     12 H5          40.8350    52.3810   109.9900 ha         1 G6C       0.212000
     13 H4          40.7050    55.7820   112.3860 hn         1 G6C       0.326500
@<TRIPOS>BOND
     1     1     2 1   
     2     1     9 1   
     3     2     3 2   
     4     2     4 1   
     5     3     5 1   
     6     3    10 1   
     7     4     6 2   
     8     4    11 1   
     9     5     7 1   
    10     5    13 1   
    11     6     7 1   
    12     6    12 1   
    13     7     8 2   
@<TRIPOS>SUBSTRUCTURE
     1 G6C         1 TEMP              0 ****  ****    0 ROOT
