@<TRIPOS>MOLECULE
G6C
   13    13     1     0     0
SMALL
abcg2


@<TRIPOS>ATOM
      1 OB          44.6390    54.7890   110.5210 oh         1 G6C      -0.523100
      2 CG          43.3260    54.6090   110.7900 cc         1 G6C       0.033100
      3 CD1         42.5780    55.4230   111.5780 cd         1 G6C      -0.146400
      4 CD2         42.6840    53.4870   110.2050 cc         1 G6C      -0.102000
      5 NE1         41.2580    55.1520   111.7850 ns         1 G6C      -0.354100
      6 CE2         41.3680    53.2390   110.4260 cd         1 G6C      -0.288200
      7 CZ          40.5610    54.0940   111.2600 c          1 G6C       0.543200
      8 OH          39.3640    53.9310   111.5040 o          1 G6C      -0.566000
      9 H1          44.9760    55.5680   110.9760 ho         1 G6C       0.462000
     10 H2          42.9640    56.3040   112.0700 h4         1 G6C       0.200000
     11 H3          43.2630    52.8230   109.5730 ha         1 G6C       0.202000
     12 H5          40.8890    52.3810   109.9750 ha         1 G6C       0.212000
     13 H4          40.7420    55.7870   112.3800 hn         1 G6C       0.326500
@<TRIPOS>BOND
     1     1     2 1   
     2     1     9 1   
     3     2     3 2   
     4     2     4 1   
     5     3     5 1   
     6     3    10 1   
     7     4     6 2   
     8     4    11 1   
     9     5     7 1   
    10     5    13 1   
    11     6     7 1   
    12     6    12 1   
    13     7     8 2   
@<TRIPOS>SUBSTRUCTURE
     1 G6C         1 TEMP              0 ****  ****    0 ROOT
