@<TRIPOS>MOLECULE
G6D
   23    23     1     0     0
SMALL
No Charge or Current Charge


@<TRIPOS>ATOM
      1 C1          24.5300     3.0920    45.0600 c6         1 G6D       0.389300
      2 O2          23.9550     3.5810    42.6400 oh         1 G6D      -0.700000
      3 C2          24.4250     2.5810    43.5730 c6         1 G6D       0.163300
      4 C3          23.5060     1.3280    43.5120 c6         1 G6D       0.136300
      5 O3          23.4240     0.8110    42.1690 oh         1 G6D      -0.732000
      6 C4          24.0440     0.2320    44.4750 c6         1 G6D       0.107300
      7 O4          23.1880    -0.9310    44.4110 oh         1 G6D      -0.722000
      8 C5          24.1390     0.8270    45.9190 c6         1 G6D       0.144300
      9 O5          24.9710     2.0190    45.9180 os         1 G6D      -0.486000
     10 C6          24.7820    -0.1480    46.9380 c3         1 G6D      -0.091100
     11 O1          23.2860     3.5560    45.5890 oh         1 G6D      -0.719000
     12 H1          25.2720     3.9060    45.0940 h2         1 G6D       0.074700
     13 HO2         23.5910     3.0520    41.8900 ho         1 G6D       0.521000
     14 H2          25.4350     2.2650    43.2740 h1         1 G6D       0.047700
     15 H3          22.5020     1.6200    43.8610 h1         1 G6D       0.073700
     16 HO3         23.1280    -0.1250    42.2900 ho         1 G6D       0.523000
     17 H4          25.0610    -0.0390    44.1530 h1         1 G6D       0.048700
     18 HO4         23.6320    -1.6510    44.9180 ho         1 G6D       0.510000
     19 H5          23.1320     1.0850    46.2790 h1         1 G6D       0.062700
     20 H61         24.8900     0.3280    47.9200 hc         1 G6D       0.045367
     21 H62         24.1670    -1.0440    47.0770 hc         1 G6D       0.045367
     22 H63         25.7780    -0.4690    46.6090 hc         1 G6D       0.045367
     23 HO1         23.4800     3.7570    46.5310 ho         1 G6D       0.514000
@<TRIPOS>BOND
     1     1     3 1   
     2     1     9 1   
     3     1    11 1   
     4     1    12 1   
     5     2     3 1   
     6     2    13 1   
     7     3     4 1   
     8     3    14 1   
     9     4     5 1   
    10     4     6 1   
    11     4    15 1   
    12     5    16 1   
    13     6     7 1   
    14     6     8 1   
    15     6    17 1   
    16     7    18 1   
    17     8     9 1   
    18     8    10 1   
    19     8    19 1   
    20    10    20 1   
    21    10    21 1   
    22    10    22 1   
    23    11    23 1   
@<TRIPOS>SUBSTRUCTURE
     1 G6D         1 TEMP              0 ****  ****    0 ROOT
