@<TRIPOS>MOLECULE
G6D
   23    23     1     0     0
SMALL
bcc


@<TRIPOS>ATOM
      1 C1          24.4870     3.0140    45.0590 c6         1 G6D       0.342900
      2 O2          23.8860     3.5480    42.8200 oh         1 G6D      -0.577800
      3 C2          24.3730     2.5060    43.6250 c6         1 G6D       0.140100
      4 C3          23.4980     1.2600    43.5720 c6         1 G6D       0.113100
      5 O3          23.5080     0.7970    42.2420 oh         1 G6D      -0.609800
      6 C4          24.0380     0.2180    44.5420 c6         1 G6D       0.084100
      7 O4          23.1420    -0.8710    44.5290 oh         1 G6D      -0.599800
      8 C5          24.1750     0.8160    45.9460 c6         1 G6D       0.121100
      9 O5          24.9710     1.9950    45.8920 os         1 G6D      -0.439600
     10 C6          24.8460    -0.1320    46.9180 c3         1 G6D      -0.091100
     11 O1          23.2470     3.4960    45.4610 oh         1 G6D      -0.596800
     12 H1          25.2510     3.7990    45.1090 h2         1 G6D       0.074700
     13 HO2         23.8990     3.2470    41.9060 ho         1 G6D       0.422000
     14 H2          25.3890     2.2150    43.3160 h1         1 G6D       0.047700
     15 H3          22.4750     1.5250    43.8810 h1         1 G6D       0.073700
     16 HO3         22.9200     0.0370    42.1820 ho         1 G6D       0.424000
     17 H4          25.0370    -0.0890    44.1970 h1         1 G6D       0.048700
     18 HO4         23.6130    -1.6670    44.7930 ho         1 G6D       0.411000
     19 H5          23.1700     1.0540    46.3190 h1         1 G6D       0.062700
     20 H61         24.9460     0.3270    47.9010 hc         1 G6D       0.045367
     21 H62         24.2530    -1.0380    47.0430 hc         1 G6D       0.045367
     22 H63         25.8390    -0.4200    46.5690 hc         1 G6D       0.045367
     23 HO1         23.3540     3.9970    46.2770 ho         1 G6D       0.415000
@<TRIPOS>BOND
     1     1     3 1   
     2     1     9 1   
     3     1    11 1   
     4     1    12 1   
     5     2     3 1   
     6     2    13 1   
     7     3     4 1   
     8     3    14 1   
     9     4     5 1   
    10     4     6 1   
    11     4    15 1   
    12     5    16 1   
    13     6     7 1   
    14     6     8 1   
    15     6    17 1   
    16     7    18 1   
    17     8     9 1   
    18     8    10 1   
    19     8    19 1   
    20    10    20 1   
    21    10    21 1   
    22    10    22 1   
    23    11    23 1   
@<TRIPOS>SUBSTRUCTURE
     1 G6D         1 TEMP              0 ****  ****    0 ROOT
