@<TRIPOS>MOLECULE
G6E
   36    37     1     0     0
SMALL
No Charge or Current Charge


@<TRIPOS>ATOM
      1 N           -6.0080    -1.0460    -1.1660 n8         1 G6E      -0.977200
      2 CA          -5.1990    -0.9770     0.0930 c3         1 G6E       0.083500
      3 C           -3.8910    -0.1010     0.0120 c          1 G6E       0.612100
      4 O           -3.9380     1.1120    -0.1480 o          1 G6E      -0.504100
      5 CB          -6.1090    -0.5290     1.2570 c3         1 G6E      -0.135100
      6 CAG          5.1550    -0.5060     0.5140 ca         1 G6E       0.284900
      7 CAH          3.1320     0.1690     1.4180 ca         1 G6E       0.337900
      8 CAI          3.1420    -0.8330    -0.7950 ca         1 G6E      -0.133000
      9 CAN          0.9880     2.4220    -0.1190 c          1 G6E       0.501600
     10 CAP          4.5360    -0.9660    -0.6850 ca         1 G6E       0.243000
     11 CAQ          2.4250    -0.2480     0.2660 ca         1 G6E      -0.030000
     12 CAR         -1.4190    -0.3730     0.1170 cc         1 G6E       0.586300
     13 CAS          0.2980     1.0810     0.0250 cd         1 G6E       0.236500
     14 CAT          0.9710    -0.1250     0.1880 cc         1 G6E      -0.114000
     15 NAJ          4.4760     0.0470     1.5510 nb         1 G6E      -0.636000
     16 NAK         -1.0920     0.9030     0.0000 nd         1 G6E      -0.647000
     17 NAL         -2.7180    -0.8180     0.1280 ns         1 G6E      -0.489400
     18 OAE          2.2060     2.5780    -0.1210 o          1 G6E      -0.511100
     19 SAM         -0.0930    -1.4930     0.2600 ss         1 G6E      -0.094400
     20 H1          -6.8810    -1.5580    -0.9850 hn         1 G6E       0.408500
     21 H2          -6.3330    -0.1010    -1.4120 hn         1 G6E       0.408500
     22 H4          -4.8770    -2.0030     0.3200 h1         1 G6E       0.066700
     23 H5          -6.9730    -1.1970     1.3600 hc         1 G6E       0.048033
     24 H6          -5.5560    -0.5480     2.2040 hc         1 G6E       0.048033
     25 H7          -6.4780     0.4930     1.0990 hc         1 G6E       0.048033
     26 H8           0.6610     4.5860    -0.3730 hc         1 G6E       0.069033
     27 H9          -0.5780     3.5000    -1.1300 hc         1 G6E       0.069033
     28 H10         -0.6110     3.6940     0.5630 hc         1 G6E       0.069033
     29 H11          6.2330    -0.5900     0.6440 h4         1 G6E       0.018100
     30 H12          2.6020     0.6100     2.2620 h4         1 G6E       0.028100
     31 H13          2.6220    -1.1740    -1.6860 ha         1 G6E       0.121000
     32 H14          6.2500    -1.7160    -1.6410 hn         1 G6E       0.453500
     33 H15          4.7640    -1.9280    -2.5360 hn         1 G6E       0.453500
     34 H16         -2.8440    -1.8150     0.2300 hn         1 G6E       0.328500
     35 NAC          5.2490    -1.5350    -1.7290 nv         1 G6E      -1.070000
     36 CAA          0.0920     3.6550    -0.2770 c3         1 G6E      -0.182100
@<TRIPOS>BOND
     1     1     2 1   
     2     1    20 1   
     3     1    21 1   
     4     2     3 1   
     5     2     5 1   
     6     2    22 1   
     7     3     4 2   
     8     3    17 1   
     9     5    23 1   
    10     5    24 1   
    11     5    25 1   
    12     6    10 ar  
    13     6    15 ar  
    14     6    29 1   
    15     7    11 ar  
    16     7    15 ar  
    17     7    30 1   
    18     8    10 ar  
    19     8    11 ar  
    20     8    31 1   
    21     9    13 1   
    22     9    18 2   
    23     9    36 1   
    24    10    35 1   
    25    11    14 1   
    26    12    16 2   
    27    12    17 1   
    28    12    19 1   
    29    13    14 2   
    30    13    16 1   
    31    14    19 1   
    32    17    34 1   
    33    26    36 1   
    34    27    36 1   
    35    28    36 1   
    36    32    35 1   
    37    33    35 1   
@<TRIPOS>SUBSTRUCTURE
     1 G6E         1 TEMP              0 ****  ****    0 ROOT
