@<TRIPOS>MOLECULE
G6E
   36    37     1     0     0
SMALL
abcg2


@<TRIPOS>ATOM
      1 N           -6.2140    -0.2620    -0.8930 n8         1 G6E      -0.977200
      2 CA          -5.1250    -0.8850    -0.1710 c3         1 G6E       0.083500
      3 C           -3.8930     0.0030    -0.2770 c          1 G6E       0.612100
      4 O           -3.9490     1.2010    -0.4170 o          1 G6E      -0.504100
      5 CB          -5.4090    -1.1550     1.3120 c3         1 G6E      -0.135100
      6 CAG          5.0580    -0.5500     0.5920 ca         1 G6E       0.284900
      7 CAH          3.1230     0.4790     1.2330 ca         1 G6E       0.337900
      8 CAI          3.0800    -0.9800    -0.6610 ca         1 G6E      -0.133000
      9 CAN          0.7730     2.6220    -0.2530 c          1 G6E       0.501600
     10 CAP          4.4450    -1.2130    -0.4780 ca         1 G6E       0.243000
     11 CAQ          2.4100    -0.1170     0.1950 ca         1 G6E      -0.030000
     12 CAR         -1.4470    -0.1650    -0.0940 cc         1 G6E       0.586300
     13 CAS          0.2300     1.2500    -0.0990 cd         1 G6E       0.236500
     14 CAT          0.9710     0.1100     0.0490 cc         1 G6E      -0.114000
     15 NAJ          4.4150     0.2630     1.4150 nb         1 G6E      -0.636000
     16 NAK         -1.1270     1.0770    -0.1710 nd         1 G6E      -0.647000
     17 NAL         -2.7120    -0.6930    -0.1410 ns         1 G6E      -0.489400
     18 OAE          1.9660     2.8200    -0.3310 o          1 G6E      -0.511100
     19 SAM         -0.0950    -1.2470     0.0910 ss         1 G6E      -0.094400
     20 H1          -7.0070    -0.8910    -0.8940 hn         1 G6E       0.408500
     21 H2          -6.5180     0.5710    -0.4030 hn         1 G6E       0.408500
     22 H4          -4.9080    -1.8400    -0.6590 h1         1 G6E       0.066700
     23 H5          -6.2720    -1.8150     1.4050 hc         1 G6E       0.048033
     24 H6          -4.5710    -1.6340     1.8200 hc         1 G6E       0.048033
     25 H7          -5.6360    -0.2250     1.8360 hc         1 G6E       0.048033
     26 H8           0.2660     4.6920    -0.4280 hc         1 G6E       0.069033
     27 H9          -0.9220     3.5830    -1.1510 hc         1 G6E       0.069033
     28 H10         -0.8460     3.7450     0.5860 hc         1 G6E       0.069033
     29 H11          6.1180    -0.6990     0.7790 h4         1 G6E       0.018100
     30 H12          2.6250     1.1350     1.9370 h4         1 G6E       0.028100
     31 H13          2.5530    -1.4580    -1.4790 ha         1 G6E       0.121000
     32 H14          6.0380    -2.3620    -0.9810 hn         1 G6E       0.453500
     33 H15          4.6410    -2.7150    -1.8290 hn         1 G6E       0.453500
     34 H16         -2.7840    -1.6980    -0.0800 hn         1 G6E       0.328500
     35 NAC          5.1620    -2.0100    -1.3340 nv         1 G6E      -1.070000
     36 CAA         -0.2350     3.7330    -0.3180 c3         1 G6E      -0.182100
@<TRIPOS>BOND
     1     1     2 1   
     2     1    20 1   
     3     1    21 1   
     4     2     3 1   
     5     2     5 1   
     6     2    22 1   
     7     3     4 2   
     8     3    17 1   
     9     5    23 1   
    10     5    24 1   
    11     5    25 1   
    12     6    10 ar  
    13     6    15 ar  
    14     6    29 1   
    15     7    11 ar  
    16     7    15 ar  
    17     7    30 1   
    18     8    10 ar  
    19     8    11 ar  
    20     8    31 1   
    21     9    13 1   
    22     9    18 2   
    23     9    36 1   
    24    10    35 1   
    25    11    14 1   
    26    12    16 2   
    27    12    17 1   
    28    12    19 1   
    29    13    14 2   
    30    13    16 1   
    31    14    19 1   
    32    17    34 1   
    33    26    36 1   
    34    27    36 1   
    35    28    36 1   
    36    32    35 1   
    37    33    35 1   
@<TRIPOS>SUBSTRUCTURE
     1 G6E         1 TEMP              0 ****  ****    0 ROOT
