@<TRIPOS>MOLECULE
G6F
   58    61     1     0     0
SMALL
No Charge or Current Charge


@<TRIPOS>ATOM
      1 O58         -8.8430    -0.5880     0.8030 o          1 G6F      -0.738500
      2 C48         -7.9620     0.2570     0.7620 c          1 G6F       0.717000
      3 O55         -8.0690     1.3710     1.2530 o          1 G6F      -0.738500
      4 C47         -6.6200    -0.1240     0.1150 c3         1 G6F      -0.204400
      5 C46         -5.6780    -0.7410     1.1750 c3         1 G6F      -0.024100
      6 C42         -4.3320    -1.1450     0.5860 ca         1 G6F      -0.044300
      7 C41         -3.2970    -0.1970     0.4650 ca         1 G6F      -0.098000
      8 C43         -4.1120    -2.4670     0.1560 ca         1 G6F      -0.103000
      9 C44         -2.8700    -2.8350    -0.3850 ca         1 G6F      -0.122000
     10 C45         -1.8430    -1.8860    -0.5000 ca         1 G6F      -0.121000
     11 C34         -2.0340    -0.5460    -0.0780 cp         1 G6F      -0.059000
     12 C20         -0.9400     0.4690    -0.2040 cp         1 G6F       0.018000
     13 C19         -1.2270     1.8160    -0.5240 ca         1 G6F      -0.140000
     14 C18         -0.1950     2.7520    -0.6580 ca         1 G6F       0.159000
     15 F35         -0.4900     4.0290    -0.9870 f          1 G6F      -0.187000
     16 C17          1.1420     2.3780    -0.4670 ca         1 G6F      -0.167000
     17 C21          0.4170     0.1090    -0.0130 ca         1 G6F      -0.110000
     18 C16          1.4700     1.0460    -0.1210 ca         1 G6F      -0.047300
     19 C4           2.9300     0.5450     0.0770 c6         1 G6F       0.197800
     20 C14          4.0250     1.6890     0.2170 c3         1 G6F      -0.043700
     21 C36          3.8430     2.6460     1.4280 c3         1 G6F      -0.087100
     22 C15          5.4880     1.1650     0.2160 c3         1 G6F      -0.087100
     23 C3           3.0170    -0.4210     1.3740 ce         1 G6F      -0.237900
     24 C8           2.4750    -0.0050     2.6650 cg         1 G6F       0.312700
     25 N9           2.0260     0.2840     3.7020 n1         1 G6F      -0.499000
     26 C2           3.5720    -1.6720     1.3050 c2         1 G6F       0.389100
     27 N7           3.7110    -2.5770     2.3320 nv         1 G6F      -0.963000
     28 C5           3.2900    -0.3140    -1.1210 cc         1 G6F      -0.230300
     29 C10          3.2060    -0.0710    -2.4650 cd         1 G6F      -0.086300
     30 C13          2.6950     1.1270    -3.2250 c3         1 G6F      -0.036800
     31 N11          3.7220    -1.2340    -3.0740 na         1 G6F      -0.008200
     32 N12          4.1210    -2.2050    -2.1460 nd         1 G6F      -0.520800
     33 C6           3.8230    -1.5980    -1.0220 cc         1 G6F       0.472300
     34 O1           4.0460    -2.2260     0.1640 os         1 G6F      -0.337400
     35 H2          -6.7660    -0.9020    -0.6450 hc         1 G6F       0.020200
     36 H3          -6.1060     0.7690    -0.2620 hc         1 G6F       0.020200
     37 H4          -5.5280    -0.0190     1.9880 hc         1 G6F       0.053700
     38 H5          -6.1670    -1.6110     1.6300 hc         1 G6F       0.053700
     39 H6          -3.4730     0.8190     0.8080 ha         1 G6F       0.116000
     40 H7          -4.9040    -3.2070     0.2400 ha         1 G6F       0.117000
     41 H8          -2.7060    -3.8570    -0.7190 ha         1 G6F       0.099000
     42 H9          -0.8940    -2.1900    -0.9350 ha         1 G6F       0.098000
     43 H10         -2.2510     2.1340    -0.6940 ha         1 G6F       0.144000
     44 H11          1.9040     3.1370    -0.6040 ha         1 G6F       0.123000
     45 H12          0.6530    -0.9230     0.2310 ha         1 G6F       0.123000
     46 H13          3.9560     2.3170    -0.6770 hc         1 G6F       0.040700
     47 H14          4.1880     2.1790     2.3570 hc         1 G6F       0.035033
     48 H15          4.4340     3.5590     1.2820 hc         1 G6F       0.035033
     49 H16          2.7990     2.9440     1.5680 hc         1 G6F       0.035033
     50 H17          5.7260     0.6350    -0.7130 hc         1 G6F       0.035033
     51 H18          6.1960     1.9990     0.3020 hc         1 G6F       0.035033
     52 H19          5.6660     0.4850     1.0570 hc         1 G6F       0.035033
     53 H20          3.0740    -2.4680     3.1160 hn         1 G6F       0.500500
     54 H21          3.8840    -3.5380     2.0480 hn         1 G6F       0.500500
     55 H22          3.1580     2.0540    -2.8680 hc         1 G6F       0.058700
     56 H23          2.9110     1.0440    -4.2960 hc         1 G6F       0.058700
     57 H24          1.6090     1.2270    -3.1140 hc         1 G6F       0.058700
     58 H25          3.8130    -1.3920    -4.0770 hn         1 G6F       0.376000
@<TRIPOS>BOND
     1     1     2 1   
     2     2     3 1   
     3     2     4 1   
     4     4     5 1   
     5     4    35 1   
     6     4    36 1   
     7     5     6 1   
     8     5    37 1   
     9     5    38 1   
    10     6     7 ar  
    11     6     8 ar  
    12     7    11 ar  
    13     7    39 1   
    14     8     9 ar  
    15     8    40 1   
    16     9    10 ar  
    17     9    41 1   
    18    10    11 ar  
    19    10    42 1   
    20    11    12 1   
    21    12    13 ar  
    22    12    17 ar  
    23    13    14 ar  
    24    13    43 1   
    25    14    15 1   
    26    14    16 ar  
    27    16    18 ar  
    28    16    44 1   
    29    17    18 ar  
    30    17    45 1   
    31    18    19 1   
    32    19    20 1   
    33    19    23 1   
    34    19    28 1   
    35    20    21 1   
    36    20    22 1   
    37    20    46 1   
    38    21    47 1   
    39    21    48 1   
    40    21    49 1   
    41    22    50 1   
    42    22    51 1   
    43    22    52 1   
    44    23    24 1   
    45    23    26 2   
    46    24    25 3   
    47    26    27 1   
    48    26    34 1   
    49    27    53 1   
    50    27    54 1   
    51    28    29 2   
    52    28    33 1   
    53    29    30 1   
    54    29    31 1   
    55    30    55 1   
    56    30    56 1   
    57    30    57 1   
    58    31    32 1   
    59    31    58 1   
    60    32    33 2   
    61    33    34 1   
@<TRIPOS>SUBSTRUCTURE
     1 G6F         1 TEMP              0 ****  ****    0 ROOT
