@<TRIPOS>MOLECULE
G6F
   58    61     1     0     0
SMALL
abcg2


@<TRIPOS>ATOM
      1 O58         -8.8560     0.1330    -0.4480 o          1 G6F      -0.738500
      2 C48         -8.0210     0.0630     0.4780 c          1 G6F       0.717000
      3 O55         -8.2260     0.3210     1.6800 o          1 G6F      -0.738500
      4 C47         -6.6060    -0.3850     0.0680 c3         1 G6F      -0.204400
      5 C46         -5.6100    -0.5520     1.2130 c3         1 G6F      -0.024100
      6 C42         -4.2670    -1.0010     0.7080 ca         1 G6F      -0.044300
      7 C41         -3.2280    -0.0920     0.5420 ca         1 G6F      -0.098000
      8 C43         -4.0450    -2.3310     0.3530 ca         1 G6F      -0.103000
      9 C44         -2.8190    -2.7290    -0.1590 ca         1 G6F      -0.122000
     10 C45         -1.7940    -1.8090    -0.3250 ca         1 G6F      -0.121000
     11 C34         -1.9860    -0.4740     0.0300 cp         1 G6F      -0.059000
     12 C20         -0.8990     0.5150    -0.1240 cp         1 G6F       0.018000
     13 C19         -1.1870     1.8390    -0.4570 ca         1 G6F      -0.140000
     14 C18         -0.1410     2.7230    -0.5880 ca         1 G6F       0.159000
     15 F35         -0.4110     3.9970    -0.9170 f          1 G6F      -0.187000
     16 C17          1.1820     2.3610    -0.4070 ca         1 G6F      -0.167000
     17 C21          0.4290     0.1420     0.0640 ca         1 G6F      -0.110000
     18 C16          1.4800     1.0460    -0.0730 ca         1 G6F      -0.047300
     19 C4           2.9180     0.5320     0.0740 c6         1 G6F       0.197800
     20 C14          3.9690     1.6730     0.2190 c3         1 G6F      -0.043700
     21 C36          3.8120     2.4980     1.4950 c3         1 G6F      -0.087100
     22 C15          5.3980     1.1450     0.1400 c3         1 G6F      -0.087100
     23 C3           2.9960    -0.4370     1.2530 ce         1 G6F      -0.237900
     24 C8           2.4190    -0.0610     2.4790 cg         1 G6F       0.312700
     25 N9           1.9280     0.2150     3.4910 n1         1 G6F      -0.499000
     26 C2           3.5740    -1.6810     1.2140 c2         1 G6F       0.389100
     27 N7           3.7920    -2.4780     2.2690 nv         1 G6F      -0.963000
     28 C5           3.2270    -0.2940    -1.1400 cc         1 G6F      -0.230300
     29 C10          3.1420    -0.0680    -2.5030 cd         1 G6F      -0.086300
     30 C13          2.6760     1.1010    -3.2930 c3         1 G6F      -0.036800
     31 N11          3.6070    -1.1880    -3.0840 na         1 G6F      -0.008200
     32 N12          3.9890    -2.1350    -2.2230 nd         1 G6F      -0.520800
     33 C6           3.7550    -1.5780    -1.0650 cc         1 G6F       0.472300
     34 O1           4.0290    -2.2430     0.0830 os         1 G6F      -0.337400
     35 H2          -6.6880    -1.3260    -0.4870 hc         1 G6F       0.020200
     36 H3          -6.2110     0.3370    -0.6550 hc         1 G6F       0.020200
     37 H4          -5.5050     0.3910     1.7520 hc         1 G6F       0.053700
     38 H5          -5.9980    -1.2780     1.9320 hc         1 G6F       0.053700
     39 H6          -3.3890     0.9380     0.8390 ha         1 G6F       0.116000
     40 H7          -4.8380    -3.0600     0.4780 ha         1 G6F       0.117000
     41 H8          -2.6600    -3.7630    -0.4380 ha         1 G6F       0.099000
     42 H9          -0.8520    -2.1320    -0.7480 ha         1 G6F       0.098000
     43 H10         -2.2020     2.1720    -0.6330 ha         1 G6F       0.144000
     44 H11          1.9470     3.1140    -0.5360 ha         1 G6F       0.123000
     45 H12          0.6520    -0.8810     0.3410 ha         1 G6F       0.123000
     46 H13          3.8320     2.3400    -0.6400 hc         1 G6F       0.040700
     47 H14          4.1510     1.9410     2.3700 hc         1 G6F       0.035033
     48 H15          4.4300     3.3940     1.4290 hc         1 G6F       0.035033
     49 H16          2.7880     2.8190     1.6830 hc         1 G6F       0.035033
     50 H17          5.6230     0.6920    -0.8250 hc         1 G6F       0.035033
     51 H18          6.1020     1.9650     0.2870 hc         1 G6F       0.035033
     52 H19          5.5940     0.4060     0.9200 hc         1 G6F       0.035033
     53 H20          3.4460    -2.2100     3.1750 hn         1 G6F       0.500500
     54 H21          3.8980    -3.4690     2.1190 hn         1 G6F       0.500500
     55 H22          3.3440     1.9540    -3.1690 hc         1 G6F       0.058700
     56 H23          2.6380     0.8650    -4.3560 hc         1 G6F       0.058700
     57 H24          1.6810     1.4130    -2.9810 hc         1 G6F       0.058700
     58 H25          3.6770    -1.3660    -4.0740 hn         1 G6F       0.376000
@<TRIPOS>BOND
     1     1     2 1   
     2     2     3 1   
     3     2     4 1   
     4     4     5 1   
     5     4    35 1   
     6     4    36 1   
     7     5     6 1   
     8     5    37 1   
     9     5    38 1   
    10     6     7 ar  
    11     6     8 ar  
    12     7    11 ar  
    13     7    39 1   
    14     8     9 ar  
    15     8    40 1   
    16     9    10 ar  
    17     9    41 1   
    18    10    11 ar  
    19    10    42 1   
    20    11    12 1   
    21    12    13 ar  
    22    12    17 ar  
    23    13    14 ar  
    24    13    43 1   
    25    14    15 1   
    26    14    16 ar  
    27    16    18 ar  
    28    16    44 1   
    29    17    18 ar  
    30    17    45 1   
    31    18    19 1   
    32    19    20 1   
    33    19    23 1   
    34    19    28 1   
    35    20    21 1   
    36    20    22 1   
    37    20    46 1   
    38    21    47 1   
    39    21    48 1   
    40    21    49 1   
    41    22    50 1   
    42    22    51 1   
    43    22    52 1   
    44    23    24 1   
    45    23    26 2   
    46    24    25 3   
    47    26    27 1   
    48    26    34 1   
    49    27    53 1   
    50    27    54 1   
    51    28    29 2   
    52    28    33 1   
    53    29    30 1   
    54    29    31 1   
    55    30    55 1   
    56    30    56 1   
    57    30    57 1   
    58    31    32 1   
    59    31    58 1   
    60    32    33 2   
    61    33    34 1   
@<TRIPOS>SUBSTRUCTURE
     1 G6F         1 TEMP              0 ****  ****    0 ROOT
