@<TRIPOS>MOLECULE
G6H
   74    78     1     0     0
SMALL
No Charge or Current Charge


@<TRIPOS>ATOM
      1 CBQ          7.4120    -3.5080    -1.6210 c3         1 G6H       0.144900
      2 OBP          8.4730    -2.5370    -1.6670 os         1 G6H      -0.321100
      3 CAB          8.3060    -1.2100    -1.3060 ca         1 G6H       0.184600
      4 CAC          7.0400    -0.7450    -0.8900 ca         1 G6H      -0.267500
      5 CAA          9.4040    -0.2980    -1.3560 ca         1 G6H       0.003100
      6 OBO         10.7020    -0.6350    -1.7480 os         1 G6H      -0.323100
      7 CBR         11.1330    -1.9500    -2.1410 c3         1 G6H       0.146900
      8 CAF          9.1880     1.0530    -0.9950 ca         1 G6H       0.184600
      9 OBS         10.2620     1.9270    -1.0570 os         1 G6H      -0.321100
     10 CBT         10.1530     3.3190    -0.7100 c3         1 G6H       0.144900
     11 CAE          7.9130     1.4870    -0.5840 ca         1 G6H      -0.267500
     12 CAD          6.8500     0.5890    -0.5170 ca         1 G6H       0.375000
     13 NAG          5.6090     1.0710    -0.1160 nu         1 G6H      -0.912900
     14 CAH          4.5110     0.5180     0.5230 ca         1 G6H       0.421900
     15 NAI          3.4380     1.3190     0.6070 nb         1 G6H      -0.299000
     16 NAM          4.5910    -0.7280     1.0200 nb         1 G6H      -0.270000
     17 CAL          3.4730    -1.1580     1.6330 ca         1 G6H       0.200900
     18 NAK          2.3410    -0.4380     1.7660 nb         1 G6H      -0.305000
     19 CAJ          2.3590     0.8040     1.2340 cp         1 G6H       0.296500
     20 CAN          1.1730     1.7060     1.4280 cp         1 G6H      -0.302500
     21 CAO          1.3570     3.1120     1.4720 ca         1 G6H       0.019000
     22 CAP          0.2480     3.9420     1.6650 ca         1 G6H      -0.244000
     23 CAQ         -1.0170     3.3650     1.8090 ca         1 G6H       0.420900
     24 NAR         -1.2200     2.0360     1.7590 nb         1 G6H      -0.769000
     25 CAS         -0.1640     1.2420     1.5610 ca         1 G6H       0.675900
     26 NAT         -0.4820    -0.0940     1.5220 nu         1 G6H      -0.934900
     27 CAU         -1.6580    -0.8450     1.4820 ca         1 G6H       0.344000
     28 CAV         -2.7970    -0.3830     0.7980 ca         1 G6H      -0.196000
     29 CAZ         -1.6810    -2.1240     2.0840 ca         1 G6H      -0.150300
     30 CBA         -0.4620    -2.6880     2.8150 c3         1 G6H      -0.043800
     31 CAY         -2.8570    -2.8960     2.0200 ca         1 G6H      -0.064000
     32 CAX         -3.9950    -2.4140     1.3530 ca         1 G6H      -0.152000
     33 CAW         -3.9730    -1.1510     0.7280 ca         1 G6H      -0.003000
     34 NBB         -5.0770    -0.5960     0.0230 ns         1 G6H      -0.139000
     35 CBC         -6.3370    -1.0920    -0.2940 c          1 G6H       0.619700
     36 OBD         -6.7150    -2.2170     0.0150 o          1 G6H      -0.573100
     37 CBE         -7.2440    -0.1490    -1.0650 ca         1 G6H      -0.160600
     38 CBJ         -8.5410    -0.5800    -1.4280 ca         1 G6H      -0.009000
     39 CBF         -6.8370     1.1570    -1.4340 ca         1 G6H      -0.059000
     40 CBG         -7.7100     1.9990    -2.1420 ca         1 G6H      -0.125000
     41 CBH         -8.9930     1.5580    -2.4960 ca         1 G6H      -0.041000
     42 CBI         -9.4180     0.2600    -2.1480 ca         1 G6H      -0.206300
     43 CBK        -10.8210    -0.2360    -2.5180 c3         1 G6H       0.358300
     44 FBL        -11.6730    -0.1180    -1.4750 f          1 G6H      -0.111667
     45 FBM        -11.3630     0.4500    -3.5500 f          1 G6H      -0.111667
     46 FBN        -10.8190    -1.5390    -2.8810 f          1 G6H      -0.111667
     47 HBQ          7.0180    -3.6090    -0.6010 h1         1 G6H       0.043533
     48 HBQA         6.5910    -3.2220    -2.2910 h1         1 G6H       0.043533
     49 HBQB         7.7830    -4.4900    -1.9390 h1         1 G6H       0.043533
     50 HAC          6.1870    -1.4100    -0.8720 ha         1 G6H       0.139500
     51 HBR         10.9880    -2.6710    -1.3260 h1         1 G6H       0.033700
     52 HBRA        10.5890    -2.2930    -3.0300 h1         1 G6H       0.033700
     53 HBRB        12.2020    -1.9370    -2.3880 h1         1 G6H       0.033700
     54 HBT         11.1230     3.8170    -0.8330 h1         1 G6H       0.043533
     55 HBTA         9.4270     3.8270    -1.3570 h1         1 G6H       0.043533
     56 HBTB         9.8410     3.4380     0.3350 h1         1 G6H       0.043533
     57 HAE          7.7380     2.5190    -0.3010 ha         1 G6H       0.139500
     58 HNAG         5.5080     2.0760    -0.2390 hn         1 G6H       0.513000
     59 HAL          3.4850    -2.1620     2.0540 h5         1 G6H       0.052100
     60 HAO          2.3460     3.5580     1.3740 ha         1 G6H       0.138000
     61 HAP          0.3610     5.0210     1.7100 ha         1 G6H       0.130000
     62 HAQ         -1.8970     3.9870     1.9670 h4         1 G6H       0.016100
     63 HNAT         0.3470    -0.6540     1.6870 hn         1 G6H       0.547000
     64 HAV         -2.7660     0.5800     0.3000 ha         1 G6H       0.148000
     65 HBA         -0.1070    -1.9980     3.5900 hc         1 G6H       0.041033
     66 HBAA        -0.6890    -3.6390     3.3110 hc         1 G6H       0.041033
     67 HBAB         0.3650    -2.8740     2.1200 hc         1 G6H       0.041033
     68 HAY         -2.8920    -3.8780     2.4870 ha         1 G6H       0.113000
     69 HAX         -4.8790    -3.0430     1.3340 ha         1 G6H       0.147000
     70 HNBB        -4.9100     0.3430    -0.3100 hn         1 G6H       0.155000
     71 HBJ         -8.8740    -1.5790    -1.1470 ha         1 G6H       0.154000
     72 HBF         -5.8520     1.5400    -1.1800 ha         1 G6H       0.121000
     73 HBG         -7.3890     3.0010    -2.4170 ha         1 G6H       0.125000
     74 HBH         -9.6530     2.2340    -3.0390 ha         1 G6H       0.132000
@<TRIPOS>BOND
     1     1     2 1   
     2     1    47 1   
     3     1    48 1   
     4     1    49 1   
     5     2     3 1   
     6     3     4 ar  
     7     3     5 ar  
     8     4    12 ar  
     9     4    50 1   
    10     5     6 1   
    11     5     8 ar  
    12     6     7 1   
    13     7    51 1   
    14     7    52 1   
    15     7    53 1   
    16     8     9 1   
    17     8    11 ar  
    18     9    10 1   
    19    10    54 1   
    20    10    55 1   
    21    10    56 1   
    22    11    12 ar  
    23    11    57 1   
    24    12    13 1   
    25    13    14 1   
    26    13    58 1   
    27    14    15 ar  
    28    14    16 ar  
    29    15    19 ar  
    30    16    17 ar  
    31    17    18 ar  
    32    17    59 1   
    33    18    19 ar  
    34    19    20 1   
    35    20    21 ar  
    36    20    25 ar  
    37    21    22 ar  
    38    21    60 1   
    39    22    23 ar  
    40    22    61 1   
    41    23    24 ar  
    42    23    62 1   
    43    24    25 ar  
    44    25    26 1   
    45    26    27 1   
    46    26    63 1   
    47    27    28 ar  
    48    27    29 ar  
    49    28    33 ar  
    50    28    64 1   
    51    29    30 1   
    52    29    31 ar  
    53    30    65 1   
    54    30    66 1   
    55    30    67 1   
    56    31    32 ar  
    57    31    68 1   
    58    32    33 ar  
    59    32    69 1   
    60    33    34 1   
    61    34    35 1   
    62    34    70 1   
    63    35    36 2   
    64    35    37 1   
    65    37    38 ar  
    66    37    39 ar  
    67    38    42 ar  
    68    38    71 1   
    69    39    40 ar  
    70    39    72 1   
    71    40    41 ar  
    72    40    73 1   
    73    41    42 ar  
    74    41    74 1   
    75    42    43 1   
    76    43    44 1   
    77    43    45 1   
    78    43    46 1   
@<TRIPOS>SUBSTRUCTURE
     1 G6H         1 TEMP              0 ****  ****    0 ROOT
