@<TRIPOS>MOLECULE
G6H
   74    78     1     0     0
SMALL
bcc


@<TRIPOS>ATOM
      1 CBQ          8.2060    -3.5830     0.3110 c3         1 G6H       0.121700
      2 OBP          9.1650    -2.5440     0.2900 os         1 G6H      -0.297900
      3 CAB          8.7400    -1.2720     0.2150 ca         1 G6H       0.184600
      4 CAC          7.3940    -0.9140     0.1510 ca         1 G6H      -0.285500
      5 CAA          9.7440    -0.3040     0.2140 ca         1 G6H       0.003100
      6 OBO         11.0520    -0.6620     0.3120 os         1 G6H      -0.299900
      7 CBR         11.6890    -0.8900    -0.9390 c3         1 G6H       0.123700
      8 CAF          9.3890     1.0450     0.1270 ca         1 G6H       0.184600
      9 OBS         10.4090     1.9160     0.1210 os         1 G6H      -0.297900
     10 CBT         10.1200     3.2980     0.0500 c3         1 G6H       0.121700
     11 CAE          8.0500     1.4140     0.0630 ca         1 G6H      -0.285500
     12 CAD          7.0580     0.4330     0.0750 ca         1 G6H       0.236600
     13 NAG          5.7460     0.9090     0.0010 nu         1 G6H      -0.719300
     14 CAH          4.5540     0.2840     0.0340 ca         1 G6H       0.947900
     15 NAI          3.4950     1.0900    -0.0660 nb         1 G6H      -0.825000
     16 NAM          4.4800    -1.0460     0.1600 nb         1 G6H      -0.796000
     17 CAL          3.2540    -1.5200     0.1850 ca         1 G6H       0.726900
     18 NAK          2.1420    -0.8110     0.0960 nb         1 G6H      -0.831000
     19 CAJ          2.3090     0.5120    -0.0330 cp         1 G6H       0.822500
     20 CAN          1.1250     1.3740    -0.1450 cp         1 G6H      -0.367800
     21 CAO          1.3240     2.7470    -0.2670 ca         1 G6H       0.001000
     22 CAP          0.2590     3.6190    -0.3810 ca         1 G6H      -0.327300
     23 CAQ         -1.0090     3.0660    -0.3700 ca         1 G6H       0.486200
     24 NAR         -1.2430     1.7700    -0.2560 nb         1 G6H      -0.769000
     25 CAS         -0.2290     0.9140    -0.1440 ca         1 G6H       0.741200
     26 NAT         -0.5090    -0.4120    -0.0280 nu         1 G6H      -0.741300
     27 CAU         -1.7150    -1.1060    -0.0190 ca         1 G6H       0.205600
     28 CAV         -2.9690    -0.5140    -0.1620 ca         1 G6H      -0.214000
     29 CAZ         -1.6310    -2.5060     0.1450 ca         1 G6H      -0.150300
     30 CBA         -0.3150    -3.2070     0.3160 c3         1 G6H      -0.043800
     31 CAY         -2.8090    -3.2340     0.1490 ca         1 G6H      -0.082000
     32 CAX         -4.0640    -2.6570     0.0070 ca         1 G6H      -0.170000
     33 CAW         -4.1360    -1.2780    -0.1480 ca         1 G6H       0.089600
     34 NBB         -5.3300    -0.5650    -0.3240 ns         1 G6H      -0.465100
     35 CBC         -6.6010    -0.9740    -0.1020 c          1 G6H       0.686700
     36 OBD         -6.9050    -2.0720     0.3310 o          1 G6H      -0.573100
     37 CBE         -7.6540     0.0420    -0.4200 ca         1 G6H      -0.160600
     38 CBJ         -8.8520    -0.0300     0.2840 ca         1 G6H      -0.027000
     39 CBF         -7.5000     1.0040    -1.4130 ca         1 G6H      -0.077000
     40 CBG         -8.5280     1.8930    -1.6900 ca         1 G6H      -0.143000
     41 CBH         -9.7130     1.8330    -0.9770 ca         1 G6H      -0.059000
     42 CBI         -9.8720     0.8670     0.0120 ca         1 G6H      -0.206300
     43 CBK        -11.1420     0.8400     0.8040 c3         1 G6H       0.722200
     44 FBL        -11.1620     1.8090     1.7320 f          1 G6H      -0.232967
     45 FBM        -12.2170     1.0310     0.0300 f          1 G6H      -0.232967
     46 FBN        -11.3220    -0.3170     1.4490 f          1 G6H      -0.232967
     47 HBQ          7.5370    -3.5050     1.1720 h1         1 G6H       0.043533
     48 HBQA         7.6070    -3.6050    -0.6030 h1         1 G6H       0.043533
     49 HBQB         8.7620    -4.5130     0.3840 h1         1 G6H       0.043533
     50 HAC          6.6180    -1.6590     0.1570 ha         1 G6H       0.157500
     51 HBR         11.2370    -1.7270    -1.4770 h1         1 G6H       0.033700
     52 HBRA        11.6560    -0.0040    -1.5770 h1         1 G6H       0.033700
     53 HBRB        12.7300    -1.1320    -0.7310 h1         1 G6H       0.033700
     54 HBT         11.0770     3.8130     0.0640 h1         1 G6H       0.043533
     55 HBTA         9.5950     3.5590    -0.8730 h1         1 G6H       0.043533
     56 HBTB         9.5270     3.6360     0.9030 h1         1 G6H       0.043533
     57 HAE          7.7630     2.4560     0.0020 ha         1 G6H       0.157500
     58 HNAG         5.6590     1.9120    -0.0850 hn         1 G6H       0.457800
     59 HAL          3.1420    -2.5940     0.2870 h5         1 G6H       0.052100
     60 HAO          2.3370     3.1230    -0.2710 ha         1 G6H       0.156000
     61 HAP          0.4040     4.6850    -0.4740 ha         1 G6H       0.148000
     62 HAQ         -1.8850     3.6990    -0.4590 h4         1 G6H       0.016100
     63 HNAT         0.3340    -0.9790     0.0590 hn         1 G6H       0.491800
     64 HAV         -3.0380     0.5560    -0.2800 ha         1 G6H       0.166000
     65 HBA          0.2140    -2.8750     1.2130 hc         1 G6H       0.041033
     66 HBAA        -0.4650    -4.2810     0.4080 hc         1 G6H       0.041033
     67 HBAB         0.3570    -3.0460    -0.5310 hc         1 G6H       0.041033
     68 HAY         -2.7490    -4.3090     0.2690 ha         1 G6H       0.131000
     69 HAX         -4.9420    -3.2800     0.0160 ha         1 G6H       0.165000
     70 HNBB        -5.2020     0.4110    -0.5460 hn         1 G6H       0.321500
     71 HBJ         -8.9700    -0.7870     1.0470 ha         1 G6H       0.172000
     72 HBF         -6.5930     1.0570    -2.0030 ha         1 G6H       0.139000
     73 HBG         -8.4080     2.6300    -2.4720 ha         1 G6H       0.143000
     74 HBH        -10.5050     2.5350    -1.2030 ha         1 G6H       0.150000
@<TRIPOS>BOND
     1     1     2 1   
     2     1    47 1   
     3     1    48 1   
     4     1    49 1   
     5     2     3 1   
     6     3     4 ar  
     7     3     5 ar  
     8     4    12 ar  
     9     4    50 1   
    10     5     6 1   
    11     5     8 ar  
    12     6     7 1   
    13     7    51 1   
    14     7    52 1   
    15     7    53 1   
    16     8     9 1   
    17     8    11 ar  
    18     9    10 1   
    19    10    54 1   
    20    10    55 1   
    21    10    56 1   
    22    11    12 ar  
    23    11    57 1   
    24    12    13 1   
    25    13    14 1   
    26    13    58 1   
    27    14    15 ar  
    28    14    16 ar  
    29    15    19 ar  
    30    16    17 ar  
    31    17    18 ar  
    32    17    59 1   
    33    18    19 ar  
    34    19    20 1   
    35    20    21 ar  
    36    20    25 ar  
    37    21    22 ar  
    38    21    60 1   
    39    22    23 ar  
    40    22    61 1   
    41    23    24 ar  
    42    23    62 1   
    43    24    25 ar  
    44    25    26 1   
    45    26    27 1   
    46    26    63 1   
    47    27    28 ar  
    48    27    29 ar  
    49    28    33 ar  
    50    28    64 1   
    51    29    30 1   
    52    29    31 ar  
    53    30    65 1   
    54    30    66 1   
    55    30    67 1   
    56    31    32 ar  
    57    31    68 1   
    58    32    33 ar  
    59    32    69 1   
    60    33    34 1   
    61    34    35 1   
    62    34    70 1   
    63    35    36 2   
    64    35    37 1   
    65    37    38 ar  
    66    37    39 ar  
    67    38    42 ar  
    68    38    71 1   
    69    39    40 ar  
    70    39    72 1   
    71    40    41 ar  
    72    40    73 1   
    73    41    42 ar  
    74    41    74 1   
    75    42    43 1   
    76    43    44 1   
    77    43    45 1   
    78    43    46 1   
@<TRIPOS>SUBSTRUCTURE
     1 G6H         1 TEMP              0 ****  ****    0 ROOT
