@<TRIPOS>MOLECULE
G6I
   66    70     1     0     0
SMALL
No Charge or Current Charge


@<TRIPOS>ATOM
      1 CAA         12.5820     0.0960    -2.6160 c3         1 G6I       0.147900
      2 OBC         11.8170    -0.5680    -1.5930 os         1 G6I      -0.338100
      3 CBH         10.5230    -0.2000    -1.2860 ca         1 G6I       0.133100
      4 CAR          9.8620    -0.9080    -0.2710 ca         1 G6I      -0.154500
      5 CAP          8.5410    -0.5780     0.0860 ca         1 G6I      -0.086000
      6 CAS          9.8540     0.8550    -1.9430 ca         1 G6I      -0.154500
      7 CAQ          8.5330     1.1830    -1.5820 ca         1 G6I      -0.086000
      8 CBF          7.8590     0.4650    -0.5760 ca         1 G6I       0.253000
      9 NBA          6.5480     0.8380    -0.2450 nu         1 G6I      -0.914900
     10 CBK          5.4620     0.1880     0.3220 ca         1 G6I       0.417900
     11 NAY          4.4060     0.9700     0.5890 nb         1 G6I      -0.302000
     12 NAW          5.5220    -1.1370     0.5400 nb         1 G6I      -0.268000
     13 CAJ          4.4080    -1.6650     1.0810 ca         1 G6I       0.200900
     14 NAX          3.2960    -0.9680     1.3930 nb         1 G6I      -0.310000
     15 CBM          3.3300     0.3570     1.1260 cp         1 G6I       0.293500
     16 CBO          2.1690     1.2210     1.5340 cp         1 G6I      -0.299500
     17 CAN          2.3860     2.5850     1.8560 ca         1 G6I       0.018000
     18 CAG          1.3000     3.3770     2.2450 ca         1 G6I      -0.244000
     19 CAI          0.0270     2.8040     2.3060 ca         1 G6I       0.417900
     20 NAV         -0.2070     1.5160     1.9940 nb         1 G6I      -0.769000
     21 CBN          0.8260     0.7620     1.6080 ca         1 G6I       0.674900
     22 NBB          0.4780    -0.5330     1.3090 nu         1 G6I      -0.935900
     23 CBL         -0.7150    -1.2410     1.1540 ca         1 G6I       0.346000
     24 CAT         -1.8610    -0.6330     0.6100 ca         1 G6I      -0.197000
     25 CBE         -0.7500    -2.6150     1.4860 ca         1 G6I      -0.150300
     26 CAB          0.4750    -3.3350     2.0530 c3         1 G6I      -0.043800
     27 CAM         -1.9440    -3.3390     1.3030 ca         1 G6I      -0.063000
     28 CAO         -3.0880    -2.7140     0.7810 ca         1 G6I      -0.155000
     29 CBG         -3.0550    -1.3520     0.4220 ca         1 G6I      -0.003000
     30 NAZ         -4.1640    -0.6480    -0.1240 ns         1 G6I      -0.138000
     31 CBD         -5.4450    -1.0470    -0.4910 c          1 G6I       0.619700
     32 OAC         -5.8420    -2.2030    -0.3970 o          1 G6I      -0.576100
     33 CBI         -6.3480     0.0470    -1.0330 ca         1 G6I      -0.159600
     34 CAU         -7.6650    -0.2800    -1.4330 ca         1 G6I      -0.009000
     35 CAK         -5.9180     1.3910    -1.1530 ca         1 G6I      -0.060000
     36 CAH         -6.7880     2.3720    -1.6540 ca         1 G6I      -0.125000
     37 CAL         -8.0920     2.0350    -2.0470 ca         1 G6I      -0.041000
     38 CBJ         -8.5400     0.7020    -1.9460 ca         1 G6I      -0.206300
     39 CBP         -9.9650     0.3160    -2.3600 c3         1 G6I       0.358300
     40 FAF        -10.5160     1.2010    -3.2230 f          1 G6I      -0.111333
     41 FAD        -10.0060    -0.8910    -2.9680 f          1 G6I      -0.111333
     42 FAE        -10.7850     0.2480    -1.2880 f          1 G6I      -0.111333
     43 H1          12.0890     0.0060    -3.5920 h1         1 G6I       0.041700
     44 H2          12.7080     1.1600    -2.3800 h1         1 G6I       0.041700
     45 H3          13.5800    -0.3540    -2.6960 h1         1 G6I       0.041700
     46 H4          10.3770    -1.7140     0.2460 ha         1 G6I       0.126000
     47 H5           8.0640    -1.1260     0.8910 ha         1 G6I       0.126500
     48 H6          10.3370     1.4280    -2.7300 ha         1 G6I       0.126000
     49 H7           8.0280     1.9960    -2.0970 ha         1 G6I       0.126500
     50 H8           6.2990     1.7810    -0.5470 hn         1 G6I       0.514000
     51 H9           4.4050    -2.7350     1.2830 h5         1 G6I       0.052100
     52 H10          3.3820     3.0240     1.8220 ha         1 G6I       0.138000
     53 H11          1.4390     4.4220     2.5050 ha         1 G6I       0.129000
     54 H12         -0.8350     3.3950     2.6120 h4         1 G6I       0.015100
     55 H13          1.2990    -1.1280     1.3310 hn         1 G6I       0.548000
     56 H14         -1.8210     0.4100     0.3150 ha         1 G6I       0.146000
     57 H15          0.8650    -2.8210     2.9390 hc         1 G6I       0.041033
     58 H16          0.2390    -4.3630     2.3540 hc         1 G6I       0.041033
     59 H17          1.2790    -3.3900     1.3100 hc         1 G6I       0.041033
     60 H18         -1.9890    -4.3940     1.5640 ha         1 G6I       0.113000
     61 H19         -3.9860    -3.3120     0.6610 ha         1 G6I       0.149000
     62 H20         -3.9830     0.3350    -0.2710 hn         1 G6I       0.155000
     63 H21         -8.0150    -1.3070    -1.3420 ha         1 G6I       0.154000
     64 H22         -4.9170     1.6980    -0.8610 ha         1 G6I       0.120000
     65 H23         -6.4500     3.4030    -1.7370 ha         1 G6I       0.125000
     66 H24         -8.7490     2.8170    -2.4260 ha         1 G6I       0.132000
@<TRIPOS>BOND
     1     1     2 1   
     2     1    43 1   
     3     1    44 1   
     4     1    45 1   
     5     2     3 1   
     6     3     4 ar  
     7     3     6 ar  
     8     4     5 ar  
     9     4    46 1   
    10     5     8 ar  
    11     5    47 1   
    12     6     7 ar  
    13     6    48 1   
    14     7     8 ar  
    15     7    49 1   
    16     8     9 1   
    17     9    10 1   
    18     9    50 1   
    19    10    11 ar  
    20    10    12 ar  
    21    11    15 ar  
    22    12    13 ar  
    23    13    14 ar  
    24    13    51 1   
    25    14    15 ar  
    26    15    16 1   
    27    16    17 ar  
    28    16    21 ar  
    29    17    18 ar  
    30    17    52 1   
    31    18    19 ar  
    32    18    53 1   
    33    19    20 ar  
    34    19    54 1   
    35    20    21 ar  
    36    21    22 1   
    37    22    23 1   
    38    22    55 1   
    39    23    24 ar  
    40    23    25 ar  
    41    24    29 ar  
    42    24    56 1   
    43    25    26 1   
    44    25    27 ar  
    45    26    57 1   
    46    26    58 1   
    47    26    59 1   
    48    27    28 ar  
    49    27    60 1   
    50    28    29 ar  
    51    28    61 1   
    52    29    30 1   
    53    30    31 1   
    54    30    62 1   
    55    31    32 2   
    56    31    33 1   
    57    33    34 ar  
    58    33    35 ar  
    59    34    38 ar  
    60    34    63 1   
    61    35    36 ar  
    62    35    64 1   
    63    36    37 ar  
    64    36    65 1   
    65    37    38 ar  
    66    37    66 1   
    67    38    39 1   
    68    39    40 1   
    69    39    41 1   
    70    39    42 1   
@<TRIPOS>SUBSTRUCTURE
     1 G6I         1 TEMP              0 ****  ****    0 ROOT
