@<TRIPOS>MOLECULE
G6I
   66    70     1     0     0
SMALL
abcg2


@<TRIPOS>ATOM
      1 CAA         12.9150    -0.3440    -0.9210 c3         1 G6I       0.147900
      2 OBC         11.9200    -0.9990    -0.1600 os         1 G6I      -0.338100
      3 CBH         10.6840    -0.4640    -0.1260 ca         1 G6I       0.133100
      4 CAR          9.7330    -1.1390     0.6420 ca         1 G6I      -0.154500
      5 CAP          8.4380    -0.6680     0.7460 ca         1 G6I      -0.086000
      6 CAS         10.3090     0.6990    -0.7910 ca         1 G6I      -0.154500
      7 CAQ          9.0020     1.1580    -0.6970 ca         1 G6I      -0.086000
      8 CBF          8.0540     0.4860     0.0640 ca         1 G6I       0.253000
      9 NBA          6.7660     1.0410     0.1530 nu         1 G6I      -0.914900
     10 CBK          5.5810     0.4120     0.1970 ca         1 G6I       0.417900
     11 NAY          4.5050     1.2010     0.2280 nb         1 G6I      -0.302000
     12 NAW          5.5370    -0.9270     0.2010 nb         1 G6I      -0.268000
     13 CAJ          4.3240    -1.4270     0.2390 ca         1 G6I       0.200900
     14 NAX          3.1950    -0.7380     0.2730 nb         1 G6I      -0.310000
     15 CBM          3.3320     0.5940     0.2640 cp         1 G6I       0.293500
     16 CBO          2.1280     1.4370     0.2950 cp         1 G6I      -0.299500
     17 CAN          2.2950     2.8180     0.3250 ca         1 G6I       0.018000
     18 CAG          1.2080     3.6710     0.3520 ca         1 G6I      -0.244000
     19 CAI         -0.0470     3.0900     0.3460 ca         1 G6I       0.417900
     20 NAV         -0.2500     1.7840     0.3190 nb         1 G6I      -0.769000
     21 CBN          0.7850     0.9460     0.2940 ca         1 G6I       0.674900
     22 NBB          0.5360    -0.3910     0.2730 nu         1 G6I      -0.935900
     23 CBL         -0.6540    -1.1090     0.2250 ca         1 G6I       0.346000
     24 CAT         -1.9150    -0.5380     0.0650 ca         1 G6I      -0.197000
     25 CBE         -0.5440    -2.5130     0.3300 ca         1 G6I      -0.150300
     26 CAB          0.7830    -3.1910     0.5100 c3         1 G6I      -0.043800
     27 CAM         -1.7050    -3.2640     0.2680 ca         1 G6I      -0.063000
     28 CAO         -2.9670    -2.7080     0.1100 ca         1 G6I      -0.155000
     29 CBG         -3.0660    -1.3260     0.0050 ca         1 G6I      -0.003000
     30 NAZ         -4.2680    -0.6250    -0.1620 ns         1 G6I      -0.138000
     31 CBD         -5.5190    -1.1060    -0.3410 c          1 G6I       0.619700
     32 OAC         -5.8160    -2.2880    -0.3040 o          1 G6I      -0.576100
     33 CBI         -6.5670    -0.0650    -0.5820 ca         1 G6I      -0.159600
     34 CAU         -7.8710    -0.3620    -0.1950 ca         1 G6I      -0.009000
     35 CAK         -6.3010     1.1450    -1.2160 ca         1 G6I      -0.060000
     36 CAH         -7.3230     2.0540    -1.4450 ca         1 G6I      -0.125000
     37 CAL         -8.6160     1.7670    -1.0410 ca         1 G6I      -0.041000
     38 CBJ         -8.8870     0.5530    -0.4160 ca         1 G6I      -0.206300
     39 CBP        -10.2820     0.2690     0.0480 c3         1 G6I       0.358300
     40 FAF        -11.1950     0.6630    -0.8490 f          1 G6I      -0.111333
     41 FAD        -10.4920    -1.0300     0.2780 f          1 G6I      -0.111333
     42 FAE        -10.5610     0.9180     1.1880 f          1 G6I      -0.111333
     43 H1          12.6540    -0.3000    -1.9820 h1         1 G6I       0.041700
     44 H2          13.1020     0.6710    -0.5610 h1         1 G6I       0.041700
     45 H3          13.8250    -0.9290    -0.8090 h1         1 G6I       0.041700
     46 H4          10.0190    -2.0380     1.1730 ha         1 G6I       0.126000
     47 H5           7.7340    -1.2030     1.3640 ha         1 G6I       0.126500
     48 H6          11.0090     1.2580    -1.3960 ha         1 G6I       0.126000
     49 H7           8.7250     2.0610    -1.2280 ha         1 G6I       0.126500
     50 H8           6.6990     2.0450     0.0670 hn         1 G6I       0.514000
     51 H9           4.2350    -2.5080     0.2410 h5         1 G6I       0.052100
     52 H10          3.3000     3.2170     0.3260 ha         1 G6I       0.138000
     53 H11          1.3290     4.7440     0.3740 ha         1 G6I       0.129000
     54 H12         -0.9380     3.7080     0.3660 h4         1 G6I       0.015100
     55 H13          1.3940    -0.9440     0.2830 hn         1 G6I       0.548000
     56 H14         -2.0030     0.5340    -0.0140 ha         1 G6I       0.146000
     57 H15          1.2950    -2.8580     1.4170 hc         1 G6I       0.041033
     58 H16          0.6530    -4.2680     0.5870 hc         1 G6I       0.041033
     59 H17          1.4620    -3.0060    -0.3250 hc         1 G6I       0.041033
     60 H18         -1.6250    -4.3410     0.3500 ha         1 G6I       0.113000
     61 H19         -3.8330    -3.3480     0.0770 ha         1 G6I       0.149000
     62 H20         -4.1700     0.3780    -0.1210 hn         1 G6I       0.155000
     63 H21         -8.0750    -1.3110     0.2820 ha         1 G6I       0.154000
     64 H22         -5.3050     1.3870    -1.5650 ha         1 G6I       0.120000
     65 H23         -7.1100     2.9870    -1.9480 ha         1 G6I       0.125000
     66 H24         -9.4020     2.4880    -1.2250 ha         1 G6I       0.132000
@<TRIPOS>BOND
     1     1     2 1   
     2     1    43 1   
     3     1    44 1   
     4     1    45 1   
     5     2     3 1   
     6     3     4 ar  
     7     3     6 ar  
     8     4     5 ar  
     9     4    46 1   
    10     5     8 ar  
    11     5    47 1   
    12     6     7 ar  
    13     6    48 1   
    14     7     8 ar  
    15     7    49 1   
    16     8     9 1   
    17     9    10 1   
    18     9    50 1   
    19    10    11 ar  
    20    10    12 ar  
    21    11    15 ar  
    22    12    13 ar  
    23    13    14 ar  
    24    13    51 1   
    25    14    15 ar  
    26    15    16 1   
    27    16    17 ar  
    28    16    21 ar  
    29    17    18 ar  
    30    17    52 1   
    31    18    19 ar  
    32    18    53 1   
    33    19    20 ar  
    34    19    54 1   
    35    20    21 ar  
    36    21    22 1   
    37    22    23 1   
    38    22    55 1   
    39    23    24 ar  
    40    23    25 ar  
    41    24    29 ar  
    42    24    56 1   
    43    25    26 1   
    44    25    27 ar  
    45    26    57 1   
    46    26    58 1   
    47    26    59 1   
    48    27    28 ar  
    49    27    60 1   
    50    28    29 ar  
    51    28    61 1   
    52    29    30 1   
    53    30    31 1   
    54    30    62 1   
    55    31    32 2   
    56    31    33 1   
    57    33    34 ar  
    58    33    35 ar  
    59    34    38 ar  
    60    34    63 1   
    61    35    36 ar  
    62    35    64 1   
    63    36    37 ar  
    64    36    65 1   
    65    37    38 ar  
    66    37    66 1   
    67    38    39 1   
    68    39    40 1   
    69    39    41 1   
    70    39    42 1   
@<TRIPOS>SUBSTRUCTURE
     1 G6I         1 TEMP              0 ****  ****    0 ROOT
