@<TRIPOS>MOLECULE
G6J
   51    53     1     0     0
SMALL
bcc


@<TRIPOS>ATOM
      1 C4          -4.6010    -1.0540     0.0400 ca         1 G6J       0.126400
      2 C14          3.1440    -3.5710    -1.1610 c3         1 G6J      -0.097400
      3 C5          -3.2530    -0.7680    -0.0230 ca         1 G6J      -0.202000
      4 C6          -2.8470     0.5210    -0.3720 ca         1 G6J       0.206600
      5 C11          4.4150    -0.7450     0.1800 c          1 G6J       0.703500
      6 C7          -0.3550     0.2700    -0.2480 ca         1 G6J       0.927900
      7 C8           0.8370    -1.5550     0.3190 ca         1 G6J       0.457200
      8 C9           2.0230    -0.8920     0.1250 ca         1 G6J      -0.261000
      9 C10          1.9120     0.4670    -0.2600 ca         1 G6J       0.716200
     10 C12          4.2280     0.7680     0.2860 c6         1 G6J       0.156500
     11 N1          -1.5290     0.9340    -0.4760 nu         1 G6J      -0.735300
     12 N2          -0.3620    -0.9880     0.1470 nb         1 G6J      -0.765000
     13 C3          -5.6030    -0.1320    -0.2250 ca         1 G6J       0.030100
     14 N3           0.7300     1.0180    -0.4550 nb         1 G6J      -0.828000
     15 C1          -3.8280     1.4800    -0.6460 ca         1 G6J      -0.202000
     16 C2          -5.1580     1.1390    -0.5680 ca         1 G6J       0.126400
     17 F1          -4.9800    -2.2940     0.3780 f          1 G6J      -0.135400
     18 O1          -6.8940    -0.5040    -0.1390 oh         1 G6J      -0.470100
     19 F2          -6.0900     2.0700    -0.8350 f          1 G6J      -0.135400
     20 N4           3.2850    -1.4930     0.2010 n          1 G6J      -0.353000
     21 N5           3.0370     1.1940    -0.4530 nh         1 G6J      -0.760300
     22 C15          3.2300    -5.0890    -1.0940 c3         1 G6J      -0.089100
     23 C16          2.9020     2.5970    -0.8170 c3         1 G6J       0.216800
     24 C17          2.6180     3.5220     0.3620 c3         1 G6J      -0.105400
     25 C18          2.5210     4.9740    -0.0860 c3         1 G6J      -0.087100
     26 O2           5.5260    -1.2410     0.1440 o          1 G6J      -0.612500
     27 C19          5.4850     1.4850    -0.1740 c3         1 G6J      -0.091100
     28 H1           2.1640    -3.2760    -1.5450 hc         1 G6J       0.051700
     29 H2           3.8840    -3.1830    -1.8640 hc         1 G6J       0.051700
     30 H3          -2.5340    -1.5400     0.1980 ha         1 G6J       0.172500
     31 H4           0.8180    -2.5990     0.6090 h4         1 G6J       0.031100
     32 H5           4.0890     0.9810     1.3580 h1         1 G6J       0.060700
     33 H6           2.6880    -3.3470     0.9450 h1         1 G6J       0.062700
     34 H7           4.3800    -3.2080     0.5640 h1         1 G6J       0.062700
     35 H8          -1.3940     1.8940    -0.7510 hn         1 G6J       0.456800
     36 H9          -3.5590     2.4920    -0.9220 ha         1 G6J       0.172500
     37 H10         -7.4780     0.2340    -0.3460 ho         1 G6J       0.437000
     38 H11          3.0550    -5.5350    -2.0730 hc         1 G6J       0.036033
     39 H12          4.2120    -5.4170    -0.7510 hc         1 G6J       0.036033
     40 H13          2.4860    -5.4970    -0.4070 hc         1 G6J       0.036033
     41 H14          3.8120     2.9060    -1.3300 h1         1 G6J       0.065700
     42 H15          2.0980     2.6760    -1.5470 h1         1 G6J       0.065700
     43 H16          1.6840     3.2160     0.8380 hc         1 G6J       0.047200
     44 H17          3.4030     3.4240     1.1160 hc         1 G6J       0.047200
     45 H18          2.2960     5.6300     0.7550 hc         1 G6J       0.035367
     46 H19          3.4570     5.3160    -0.5300 hc         1 G6J       0.035367
     47 H20          1.7330     5.1090    -0.8290 hc         1 G6J       0.035367
     48 H21          5.6610     1.3440    -1.2410 hc         1 G6J       0.056367
     49 H22          5.4300     2.5510     0.0330 hc         1 G6J       0.056367
     50 H23          6.3430     1.0990     0.3690 hc         1 G6J       0.056367
     51 C13          3.3860    -2.9480     0.2070 c3         1 G6J       0.095000
@<TRIPOS>BOND
     1     1     3 ar  
     2     1    13 ar  
     3     1    17 1   
     4     2    22 1   
     5     2    28 1   
     6     2    29 1   
     7     2    51 1   
     8     3     4 ar  
     9     3    30 1   
    10     4    11 1   
    11     4    15 ar  
    12     5    10 1   
    13     5    20 1   
    14     5    26 2   
    15     6    11 1   
    16     6    12 ar  
    17     6    14 ar  
    18     7     8 ar  
    19     7    12 ar  
    20     7    31 1   
    21     8     9 ar  
    22     8    20 1   
    23     9    14 ar  
    24     9    21 1   
    25    10    21 1   
    26    10    27 1   
    27    10    32 1   
    28    11    35 1   
    29    13    16 ar  
    30    13    18 1   
    31    15    16 ar  
    32    15    36 1   
    33    16    19 1   
    34    18    37 1   
    35    20    51 1   
    36    21    23 1   
    37    22    38 1   
    38    22    39 1   
    39    22    40 1   
    40    23    24 1   
    41    23    41 1   
    42    23    42 1   
    43    24    25 1   
    44    24    43 1   
    45    24    44 1   
    46    25    45 1   
    47    25    46 1   
    48    25    47 1   
    49    27    48 1   
    50    27    49 1   
    51    27    50 1   
    52    33    51 1   
    53    34    51 1   
@<TRIPOS>SUBSTRUCTURE
     1 G6J         1 TEMP              0 ****  ****    0 ROOT
