@<TRIPOS>MOLECULE
G6J
   51    53     1     0     0
SMALL
No Charge or Current Charge


@<TRIPOS>ATOM
      1 C4          -4.7500    -0.7530     0.6670 ca         1 G6J       0.161500
      2 C14          3.2480    -3.6670    -1.2600 c3         1 G6J      -0.097400
      3 C5          -3.3880    -0.4370     0.5450 ca         1 G6J      -0.184000
      4 C6          -2.9660     0.5410    -0.3700 ca         1 G6J       0.345000
      5 C11          4.4730    -0.7980     0.1970 c          1 G6J       0.561000
      6 C7          -0.4150     0.2410    -0.3250 ca         1 G6J       0.401900
      7 C8           0.7740    -1.6650     0.0920 ca         1 G6J       0.128900
      8 C9           1.9860    -0.9550    -0.0690 ca         1 G6J      -0.223000
      9 C10          1.8660     0.4390    -0.3010 ca         1 G6J       0.387900
     10 C12          4.2800     0.7580     0.2720 c6         1 G6J       0.156500
     11 N1          -1.6230     0.8970    -0.5140 nu         1 G6J      -0.928900
     12 N2          -0.4230    -1.0730    -0.0560 nb         1 G6J      -0.239000
     13 C3          -5.7150    -0.0900    -0.1190 ca         1 G6J       0.030100
     14 N3           0.6620     1.0220    -0.4520 nb         1 G6J      -0.302000
     15 C1          -3.9210     1.2170    -1.1430 ca         1 G6J      -0.184000
     16 C2          -5.2830     0.9010    -1.0240 ca         1 G6J       0.161500
     17 F1          -5.1280    -1.7000     1.5570 f          1 G6J      -0.170500
     18 O1          -7.0520    -0.3980    -0.0020 oh         1 G6J      -0.509100
     19 F2          -6.1840     1.5610    -1.7880 f          1 G6J      -0.170500
     20 N4           3.2830    -1.5710     0.1620 n          1 G6J      -0.193400
     21 N5           3.0120     1.2770    -0.3660 nh         1 G6J      -0.760300
     22 C15          3.3650    -5.2030    -1.2650 c3         1 G6J      -0.089100
     23 C16          2.8950     2.7290    -0.6920 c3         1 G6J       0.216800
     24 C17          2.7090     3.6270     0.5510 c3         1 G6J      -0.105400
     25 C18          2.5790     5.1220     0.2020 c3         1 G6J      -0.087100
     26 O2           5.5870    -1.3170     0.1780 o          1 G6J      -0.537000
     27 C19          5.5680     1.4850    -0.2370 c3         1 G6J      -0.091100
     28 H1           2.2760    -3.3820    -1.6800 hc         1 G6J       0.051700
     29 H2           4.0160    -3.2460    -1.9200 hc         1 G6J       0.051700
     30 H3          -2.6740    -0.9460     1.1810 ha         1 G6J       0.154500
     31 H4           0.7430    -2.7260     0.3270 h4         1 G6J       0.031100
     32 H5           4.2120     0.9610     1.3500 h1         1 G6J       0.060700
     33 H6           2.6520    -3.4820     0.8230 h1         1 G6J       0.062700
     34 H7           4.3750    -3.3580     0.5620 h1         1 G6J       0.062700
     35 H8          -1.4870     1.8220    -0.9170 hn         1 G6J       0.512000
     36 H9          -3.6120     1.9820    -1.8480 ha         1 G6J       0.154500
     37 H10         -7.5640     0.1660    -0.6230 ho         1 G6J       0.476000
     38 H11          3.2510    -5.5920    -2.2830 hc         1 G6J       0.036033
     39 H12          4.3440    -5.5190    -0.8840 hc         1 G6J       0.036033
     40 H13          2.5870    -5.6530    -0.6360 hc         1 G6J       0.036033
     41 H14          3.7740     3.0700    -1.2540 h1         1 G6J       0.065700
     42 H15          2.0520     2.9000    -1.3760 h1         1 G6J       0.065700
     43 H16          1.8120     3.3070     1.0960 hc         1 G6J       0.047200
     44 H17          3.5590     3.4930     1.2310 hc         1 G6J       0.047200
     45 H18          2.4470     5.7170     1.1130 hc         1 G6J       0.035367
     46 H19          3.4780     5.4790    -0.3150 hc         1 G6J       0.035367
     47 H20          1.7130     5.2940    -0.4480 hc         1 G6J       0.035367
     48 H21          5.6950     1.3570    -1.3190 hc         1 G6J       0.056367
     49 H22          5.5490     2.5580    -0.0180 hc         1 G6J       0.056367
     50 H23          6.4680     1.0960     0.2530 hc         1 G6J       0.056367
     51 C13          3.4040    -3.0550     0.1500 c3         1 G6J       0.095000
@<TRIPOS>BOND
     1     1     3 ar  
     2     1    13 ar  
     3     1    17 1   
     4     2    22 1   
     5     2    28 1   
     6     2    29 1   
     7     2    51 1   
     8     3     4 ar  
     9     3    30 1   
    10     4    11 1   
    11     4    15 ar  
    12     5    10 1   
    13     5    20 1   
    14     5    26 2   
    15     6    11 1   
    16     6    12 ar  
    17     6    14 ar  
    18     7     8 ar  
    19     7    12 ar  
    20     7    31 1   
    21     8     9 ar  
    22     8    20 1   
    23     9    14 ar  
    24     9    21 1   
    25    10    21 1   
    26    10    27 1   
    27    10    32 1   
    28    11    35 1   
    29    13    16 ar  
    30    13    18 1   
    31    15    16 ar  
    32    15    36 1   
    33    16    19 1   
    34    18    37 1   
    35    20    51 1   
    36    21    23 1   
    37    22    38 1   
    38    22    39 1   
    39    22    40 1   
    40    23    24 1   
    41    23    41 1   
    42    23    42 1   
    43    24    25 1   
    44    24    43 1   
    45    24    44 1   
    46    25    45 1   
    47    25    46 1   
    48    25    47 1   
    49    27    48 1   
    50    27    49 1   
    51    27    50 1   
    52    33    51 1   
    53    34    51 1   
@<TRIPOS>SUBSTRUCTURE
     1 G6J         1 TEMP              0 ****  ****    0 ROOT
