@<TRIPOS>MOLECULE
G6K
   61    65     1     0     0
SMALL
bcc


@<TRIPOS>ATOM
      1 C1           6.3090     4.6540     0.7940 c3         1 G6K      -0.076100
      2 C2           5.3280     3.7640     0.0510 c3         1 G6K      -0.152400
      3 C3           3.8950     3.9510     0.5020 c          1 G6K       0.672100
      4 O4           3.5660     4.8230     1.2990 o          1 G6K      -0.604100
      5 N5           2.9920     3.1030    -0.0210 n          1 G6K      -0.492800
      6 C6           3.2700     2.0470    -0.9930 c5         1 G6K       0.106000
      7 C7           1.8820     1.6150    -1.4380 c5         1 G6K      -0.119400
      8 C8           1.0520     1.8230    -0.1710 c5         1 G6K       0.223500
      9 C9           1.5960     3.1390     0.3790 c5         1 G6K       0.093000
     10 N10         -0.3730     1.8680    -0.3470 nu         1 G6K      -0.851900
     11 C11         -1.1400     0.7760    -0.5310 ca         1 G6K       0.951900
     12 N12         -2.4270     0.9840    -0.8070 nb         1 G6K      -0.772000
     13 C13         -3.1840    -0.0960    -0.9790 ca         1 G6K       0.521600
     14 C14         -4.6340     0.1390    -1.3050 c3         1 G6K       0.111500
     15 N15         -5.3190     0.8470    -0.2460 n3         1 G6K      -0.696600
     16 C16         -6.6290     1.3000    -0.6810 c6         1 G6K       0.124300
     17 C17         -7.3180     2.0540     0.4400 c6         1 G6K       0.130400
     18 O18         -7.4360     1.2610     1.6010 os         1 G6K      -0.403600
     19 C19         -6.1680     0.8250     2.0360 c6         1 G6K       0.130400
     20 C20         -5.4430     0.0430     0.9570 c6         1 G6K       0.124300
     21 C21         -2.6820    -1.3790    -0.8830 ca         1 G6K      -0.476600
     22 C22         -1.3190    -1.4780    -0.5930 ca         1 G6K       0.744200
     23 N23         -0.7330    -2.7110    -0.4910 nu         1 G6K      -0.793900
     24 C24          0.5750    -3.0050    -0.2640 cc         1 G6K       0.611100
     25 N25          0.9730    -4.2360    -0.2470 nd         1 G6K      -0.616100
     26 C26          2.3180    -4.3030    -0.0060 ca         1 G6K       0.022100
     27 C27          3.1040    -5.4480     0.0770 ca         1 G6K      -0.053000
     28 C28          4.4550    -5.2770     0.3270 ca         1 G6K      -0.240300
     29 C29          4.9770    -3.9930     0.4820 ca         1 G6K       0.395200
     30 N30          4.2410    -2.8900     0.4060 nb         1 G6K      -0.624000
     31 C31          2.9580    -3.0690     0.1690 ca         1 G6K       0.384600
     32 S32          1.7920    -1.7760     0.0180 ss         1 G6K      -0.083500
     33 N33         -0.5520    -0.4210    -0.4150 nb         1 G6K      -0.844000
     34 H1           6.2850     4.4720     1.8680 hc         1 G6K       0.042033
     35 H2           7.3240     4.4560     0.4480 hc         1 G6K       0.042033
     36 H3           6.1040     5.7100     0.6270 hc         1 G6K       0.042033
     37 H4           5.3860     3.9590    -1.0240 hc         1 G6K       0.056200
     38 H5           5.6090     2.7140     0.1700 hc         1 G6K       0.056200
     39 H6           3.8750     2.4130    -1.8230 h1         1 G6K       0.050700
     40 H7           3.8100     1.2180    -0.5250 h1         1 G6K       0.050700
     41 H8           1.5100     2.2690    -2.2310 hc         1 G6K       0.065200
     42 H9           1.8570     0.5900    -1.8020 hc         1 G6K       0.065200
     43 H10          1.2840     1.0280     0.5410 h1         1 G6K       0.087700
     44 H11          1.4900     3.2120     1.4610 h1         1 G6K       0.062200
     45 H12          1.0800     3.9970    -0.0670 h1         1 G6K       0.062200
     46 H13         -0.8050     2.7510    -0.5710 hn         1 G6K       0.455800
     47 H14         -4.6770     0.7500    -2.2120 h1         1 G6K       0.049200
     48 H15         -5.1160    -0.8230    -1.5430 h1         1 G6K       0.049200
     49 H17         -6.5140     1.9670    -1.5380 h1         1 G6K       0.041450
     50 H18         -7.2670     0.4590    -1.0050 h1         1 G6K       0.041450
     51 H19         -6.7560     2.9720     0.6600 h1         1 G6K       0.052950
     52 H20         -8.3250     2.3410     0.1340 h1         1 G6K       0.052950
     53 H21         -5.5510     1.6830     2.3400 h1         1 G6K       0.052950
     54 H22         -6.3190     0.1950     2.9140 h1         1 G6K       0.052950
     55 H23         -5.9770    -0.9020     0.7590 h1         1 G6K       0.041450
     56 H24         -4.4520    -0.2240     1.3310 h1         1 G6K       0.041450
     57 H25         -3.3030    -2.2520    -1.0240 ha         1 G6K       0.155000
     58 H26         -1.3210    -3.5200    -0.6380 hn         1 G6K       0.465800
     59 H27          2.6710    -6.4310    -0.0510 ha         1 G6K       0.153000
     60 H28          5.1140    -6.1310     0.4020 ha         1 G6K       0.144000
     61 H29          6.0340    -3.8560     0.6750 h4         1 G6K       0.022100
@<TRIPOS>BOND
     1     1     2 1   
     2     1    34 1   
     3     1    35 1   
     4     1    36 1   
     5     2     3 1   
     6     2    37 1   
     7     2    38 1   
     8     3     4 2   
     9     3     5 1   
    10     5     6 1   
    11     5     9 1   
    12     6     7 1   
    13     6    39 1   
    14     6    40 1   
    15     7     8 1   
    16     7    41 1   
    17     7    42 1   
    18     8     9 1   
    19     8    10 1   
    20     8    43 1   
    21     9    44 1   
    22     9    45 1   
    23    10    11 1   
    24    10    46 1   
    25    11    12 ar  
    26    11    33 ar  
    27    12    13 ar  
    28    13    14 1   
    29    13    21 ar  
    30    14    15 1   
    31    14    47 1   
    32    14    48 1   
    33    15    16 1   
    34    15    20 1   
    35    16    17 1   
    36    16    49 1   
    37    16    50 1   
    38    17    18 1   
    39    17    51 1   
    40    17    52 1   
    41    18    19 1   
    42    19    20 1   
    43    19    53 1   
    44    19    54 1   
    45    20    55 1   
    46    20    56 1   
    47    21    22 ar  
    48    21    57 1   
    49    22    23 1   
    50    22    33 ar  
    51    23    24 1   
    52    23    58 1   
    53    24    25 2   
    54    24    32 1   
    55    25    26 1   
    56    26    27 ar  
    57    26    31 ar  
    58    27    28 ar  
    59    27    59 1   
    60    28    29 ar  
    61    28    60 1   
    62    29    30 ar  
    63    29    61 1   
    64    30    31 ar  
    65    31    32 1   
@<TRIPOS>SUBSTRUCTURE
     1 G6K         1 TEMP              0 ****  ****    0 ROOT
