@<TRIPOS>MOLECULE
G6K
   61    65     1     0     0
SMALL
No Charge or Current Charge


@<TRIPOS>ATOM
      1 C1           6.3630     5.1720     0.9350 c3         1 G6K      -0.076100
      2 C2           5.4490     4.1380     0.2380 c3         1 G6K      -0.152400
      3 C3           3.9320     4.3620     0.4010 c          1 G6K       0.605100
      4 O4           3.4870     5.3460     0.9790 o          1 G6K      -0.604100
      5 N5           3.0560     3.3960    -0.1320 n          1 G6K      -0.425800
      6 C6           3.4900     2.1900    -0.8760 c5         1 G6K       0.106000
      7 C7           2.1570     1.7170    -1.5140 c5         1 G6K      -0.119400
      8 C8           1.1530     2.0470    -0.3800 c5         1 G6K       0.223500
      9 C9           1.5820     3.4990    -0.0140 c5         1 G6K       0.093000
     10 N10         -0.1830     2.1530    -1.0470 nu         1 G6K      -0.907100
     11 C11         -0.9760     1.0040    -1.0190 ca         1 G6K       0.425900
     12 N12         -2.2860     1.2300    -1.2010 nb         1 G6K      -0.246000
     13 C13         -3.0950     0.1520    -1.1910 ca         1 G6K       0.193300
     14 C14         -4.5940     0.3940    -1.3910 c3         1 G6K       0.111500
     15 N15         -5.3300     0.8140    -0.1670 n3         1 G6K      -0.696600
     16 C16         -6.7490     1.1930    -0.4490 c6         1 G6K       0.124300
     17 C17         -7.4930     1.6500     0.8420 c6         1 G6K       0.153600
     18 O18         -7.4060     0.6250     1.8620 os         1 G6K      -0.450000
     19 C19         -6.0380     0.2980     2.2070 c6         1 G6K       0.153600
     20 C20         -5.2610    -0.1860     0.9470 c6         1 G6K       0.124300
     21 C21         -2.5750    -1.1410    -1.0020 ca         1 G6K      -0.328000
     22 C22         -1.1970    -1.2620    -0.8200 ca         1 G6K       0.415900
     23 N23         -0.6400    -2.5110    -0.6270 nu         1 G6K      -0.849100
     24 C24          0.6030    -2.9730    -0.3330 cc         1 G6K       0.611100
     25 N25          0.6960    -4.2960    -0.2620 nd         1 G6K      -0.616100
     26 C26          2.0220    -4.5730     0.0560 ca         1 G6K       0.087400
     27 C27          2.5420    -5.8650     0.2210 ca         1 G6K      -0.035000
     28 C28          3.9090    -5.9840     0.5430 ca         1 G6K      -0.157000
     29 C29          4.6920    -4.8180     0.6850 ca         1 G6K       0.329900
     30 N30          4.1880    -3.5700     0.5260 nb         1 G6K      -0.624000
     31 C31          2.8730    -3.4870     0.2170 ca         1 G6K       0.319300
     32 S32          2.0410    -1.9680    -0.0250 ss         1 G6K      -0.083500
     33 N33         -0.3920    -0.1940    -0.8320 nb         1 G6K      -0.318000
     34 H1           6.1850     5.1810     2.0170 hc         1 G6K       0.042033
     35 H2           7.4180     4.9280     0.7630 hc         1 G6K       0.042033
     36 H3           6.1780     6.1800     0.5440 hc         1 G6K       0.042033
     37 H4           5.6660     4.0790    -0.8340 hc         1 G6K       0.056200
     38 H5           5.6830     3.1170     0.5600 hc         1 G6K       0.056200
     39 H6           4.2450     2.4110    -1.6410 h1         1 G6K       0.050700
     40 H7           3.8970     1.4360    -0.1880 h1         1 G6K       0.050700
     41 H8           1.9470     2.2830    -2.4290 hc         1 G6K       0.065200
     42 H9           2.1740     0.6550    -1.7800 hc         1 G6K       0.065200
     43 H10          1.2160     1.3720     0.4880 h1         1 G6K       0.087700
     44 H11          1.2600     3.7750     0.9980 h1         1 G6K       0.062200
     45 H12          1.1990     4.2450    -0.7230 h1         1 G6K       0.062200
     46 H13         -0.7080     3.0280    -1.0530 hn         1 G6K       0.511000
     47 H14         -4.7070     1.1630    -2.1680 h1         1 G6K       0.049200
     48 H15         -5.0410    -0.5230    -1.7970 h1         1 G6K       0.049200
     49 H17         -6.7870     2.0090    -1.1850 h1         1 G6K       0.041450
     50 H18         -7.2920     0.3410    -0.8840 h1         1 G6K       0.041450
     51 H19         -7.0480     2.5800     1.2230 h1         1 G6K       0.052950
     52 H20         -8.5510     1.8440     0.6160 h1         1 G6K       0.052950
     53 H21         -5.5480     1.1870     2.6310 h1         1 G6K       0.052950
     54 H22         -6.0380    -0.4900     2.9730 h1         1 G6K       0.052950
     55 H23         -5.6810    -1.1490     0.6220 h1         1 G6K       0.041450
     56 H24         -4.2160    -0.3720     1.2360 h1         1 G6K       0.041450
     57 H25         -3.2270    -2.0090    -0.9920 ha         1 G6K       0.137000
     58 H26         -1.2910    -3.2840    -0.7010 hn         1 G6K       0.521000
     59 H27          1.9110    -6.7430     0.1040 ha         1 G6K       0.135000
     60 H28          4.3630    -6.9610     0.6810 ha         1 G6K       0.126000
     61 H29          5.7500    -4.8870     0.9340 h4         1 G6K       0.022100
@<TRIPOS>BOND
     1     1     2 1   
     2     1    34 1   
     3     1    35 1   
     4     1    36 1   
     5     2     3 1   
     6     2    37 1   
     7     2    38 1   
     8     3     4 2   
     9     3     5 1   
    10     5     6 1   
    11     5     9 1   
    12     6     7 1   
    13     6    39 1   
    14     6    40 1   
    15     7     8 1   
    16     7    41 1   
    17     7    42 1   
    18     8     9 1   
    19     8    10 1   
    20     8    43 1   
    21     9    44 1   
    22     9    45 1   
    23    10    11 1   
    24    10    46 1   
    25    11    12 ar  
    26    11    33 ar  
    27    12    13 ar  
    28    13    14 1   
    29    13    21 ar  
    30    14    15 1   
    31    14    47 1   
    32    14    48 1   
    33    15    16 1   
    34    15    20 1   
    35    16    17 1   
    36    16    49 1   
    37    16    50 1   
    38    17    18 1   
    39    17    51 1   
    40    17    52 1   
    41    18    19 1   
    42    19    20 1   
    43    19    53 1   
    44    19    54 1   
    45    20    55 1   
    46    20    56 1   
    47    21    22 ar  
    48    21    57 1   
    49    22    23 1   
    50    22    33 ar  
    51    23    24 1   
    52    23    58 1   
    53    24    25 2   
    54    24    32 1   
    55    25    26 1   
    56    26    27 ar  
    57    26    31 ar  
    58    27    28 ar  
    59    27    59 1   
    60    28    29 ar  
    61    28    60 1   
    62    29    30 ar  
    63    29    61 1   
    64    30    31 ar  
    65    31    32 1   
@<TRIPOS>SUBSTRUCTURE
     1 G6K         1 TEMP              0 ****  ****    0 ROOT
