@<TRIPOS>MOLECULE
G6L
   31    32     1     0     0
SMALL
No Charge or Current Charge


@<TRIPOS>ATOM
      1 C1          97.0250   118.9120   116.8500 cc         1 G6L      -0.234300
      2 C10         90.0540   119.9070   116.5140 c3         1 G6L      -0.085100
      3 C2          97.1680   120.2430   117.1940 cd         1 G6L       0.327300
      4 C3          95.7560   118.1130   117.0450 c6         1 G6L       0.001900
      5 C4          96.0290   121.0530   117.7710 c6         1 G6L      -0.106700
      6 C5          94.5230   119.0380   117.2610 c6         1 G6L       0.177500
      7 C6          94.8710   120.1560   118.2840 c6         1 G6L      -0.071400
      8 C7          99.1820   119.8510   116.4470 cc         1 G6L       0.695300
      9 C9          91.4850   119.3410   116.4330 c3         1 G6L      -0.115400
     10 N1          98.4210   120.7830   116.9490 nd         1 G6L      -0.719000
     11 N2          93.3490   118.2280   117.6790 n7         1 G6L      -0.867400
     12 N3         100.4380   120.1780   116.1310 nv         1 G6L      -1.034900
     13 S           98.5050   118.2680   116.2010 ss         1 G6L      -0.121400
     14 H1          89.7120   120.2270   115.5220 hc         1 G6L       0.033367
     15 H2          89.3560   119.1480   116.8880 hc         1 G6L       0.033367
     16 H3          90.0170   120.7730   117.1850 hc         1 G6L       0.033367
     17 H4          95.5760   117.4580   116.1810 hc         1 G6L       0.055200
     18 H5          95.8720   117.4500   117.9130 hc         1 G6L       0.055200
     19 H6          96.3880   121.6930   118.5880 hc         1 G6L       0.060200
     20 H7          95.6440   121.7310   116.9980 hc         1 G6L       0.060200
     21 H8          94.2980   119.5150   116.2960 h1         1 G6L       0.028700
     22 H9          93.9990   120.7910   118.4850 hc         1 G6L       0.052200
     23 H10         95.1530   119.7000   119.2430 hc         1 G6L       0.052200
     24 H11         92.0560   119.7300   118.4940 h1         1 G6L       0.050700
     25 H12         91.3070   118.1570   118.2280 h1         1 G6L       0.050700
     26 H13         91.4940   118.4980   115.7300 hc         1 G6L       0.038200
     27 H14         92.1410   120.1160   116.0190 hc         1 G6L       0.038200
     28 H15         93.2480   117.4450   117.0220 hn         1 G6L       0.410000
     29 H17        100.9050   119.5870   115.4530 hn         1 G6L       0.473000
     30 H18        100.6240   121.1710   116.0720 hn         1 G6L       0.473000
     31 C8          92.0230   118.8760   117.8050 c3         1 G6L       0.156800
@<TRIPOS>BOND
     1     1     3 2   
     2     1     4 1   
     3     1    13 1   
     4     2     9 1   
     5     2    14 1   
     6     2    15 1   
     7     2    16 1   
     8     3     5 1   
     9     3    10 1   
    10     4     6 1   
    11     4    17 1   
    12     4    18 1   
    13     5     7 1   
    14     5    19 1   
    15     5    20 1   
    16     6     7 1   
    17     6    11 1   
    18     6    21 1   
    19     7    22 1   
    20     7    23 1   
    21     8    10 2   
    22     8    12 1   
    23     8    13 1   
    24     9    26 1   
    25     9    27 1   
    26     9    31 1   
    27    11    28 1   
    28    11    31 1   
    29    12    29 1   
    30    12    30 1   
    31    24    31 1   
    32    25    31 1   
@<TRIPOS>SUBSTRUCTURE
     1 G6L         1 TEMP              0 ****  ****    0 ROOT
