@<TRIPOS>MOLECULE
G6L
   31    32     1     0     0
SMALL
abcg2


@<TRIPOS>ATOM
      1 C1          96.9110   118.9700   116.8350 cc         1 G6L      -0.234300
      2 C10         90.1270   119.8570   116.3900 c3         1 G6L      -0.085100
      3 C2          97.1110   120.2450   117.2400 cd         1 G6L       0.327300
      4 C3          95.6580   118.1800   116.9960 c6         1 G6L       0.001900
      5 C4          96.0420   121.0290   117.9300 c6         1 G6L      -0.106700
      6 C5          94.4980   119.1150   117.3470 c6         1 G6L       0.177500
      7 C6          94.9350   120.1030   118.4290 c6         1 G6L      -0.071400
      8 C7          99.1100   119.9270   116.3820 cc         1 G6L       0.695300
      9 C9          91.5000   119.2010   116.3390 c3         1 G6L      -0.115400
     10 N1          98.3470   120.7860   116.9790 nd         1 G6L      -0.719000
     11 N2          93.3710   118.3120   117.7960 n7         1 G6L      -0.867400
     12 N3         100.4100   120.1440   116.0560 nv         1 G6L      -1.034900
     13 S           98.3630   118.3760   116.0850 ss         1 G6L      -0.121400
     14 H1          89.7190   120.0100   115.3910 hc         1 G6L       0.033367
     15 H2          89.4160   119.2430   116.9470 hc         1 G6L       0.033367
     16 H3          90.1720   120.8310   116.8800 hc         1 G6L       0.033367
     17 H4          95.4190   117.6300   116.0810 hc         1 G6L       0.055200
     18 H5          95.7690   117.4330   117.7910 hc         1 G6L       0.055200
     19 H6          96.4720   121.5900   118.7630 hc         1 G6L       0.060200
     20 H7          95.6300   121.7760   117.2430 hc         1 G6L       0.060200
     21 H8          94.2620   119.6950   116.4390 h1         1 G6L       0.028700
     22 H9          94.0870   120.7030   118.7640 hc         1 G6L       0.052200
     23 H10         95.2840   119.5370   119.2980 hc         1 G6L       0.052200
     24 H11         92.1240   119.9080   118.2760 h1         1 G6L       0.050700
     25 H12         91.3620   118.3400   118.2980 h1         1 G6L       0.050700
     26 H13         91.4340   118.2450   115.8110 hc         1 G6L       0.038200
     27 H14         92.1820   119.8280   115.7580 hc         1 G6L       0.038200
     28 H15         93.3310   117.4590   117.2500 hn         1 G6L       0.410000
     29 H17        100.8100   119.5920   115.3150 hn         1 G6L       0.473000
     30 H18        100.6920   121.1120   116.0350 hn         1 G6L       0.473000
     31 C8          92.0700   118.9580   117.7360 c3         1 G6L       0.156800
@<TRIPOS>BOND
     1     1     3 2   
     2     1     4 1   
     3     1    13 1   
     4     2     9 1   
     5     2    14 1   
     6     2    15 1   
     7     2    16 1   
     8     3     5 1   
     9     3    10 1   
    10     4     6 1   
    11     4    17 1   
    12     4    18 1   
    13     5     7 1   
    14     5    19 1   
    15     5    20 1   
    16     6     7 1   
    17     6    11 1   
    18     6    21 1   
    19     7    22 1   
    20     7    23 1   
    21     8    10 2   
    22     8    12 1   
    23     8    13 1   
    24     9    26 1   
    25     9    27 1   
    26     9    31 1   
    27    11    28 1   
    28    11    31 1   
    29    12    29 1   
    30    12    30 1   
    31    24    31 1   
    32    25    31 1   
@<TRIPOS>SUBSTRUCTURE
     1 G6L         1 TEMP              0 ****  ****    0 ROOT
