@<TRIPOS>MOLECULE
G6M
   44    46     1     0     0
SMALL
abcg2


@<TRIPOS>ATOM
      1 C6           2.9790     0.6800    -1.2350 ca         1 G6M      -0.111000
      2 C5           1.6210     0.4770    -1.4350 ca         1 G6M      -0.151000
      3 C4           0.8770    -0.2650    -0.5260 ca         1 G6M      -0.002000
      4 C3           1.5190    -0.8040     0.5900 ca         1 G6M      -0.151000
      5 C2           2.8730    -0.6110     0.7400 ca         1 G6M       0.184000
      6 C1           3.6530     0.1370    -0.1440 ca         1 G6M       0.211000
      7 C10         -2.6950    -0.0700    -1.2640 c5         1 G6M       0.129300
      8 C12         -1.2000    -1.5620    -0.4190 c          1 G6M       0.696100
      9 C15          5.8470     0.5800    -1.0800 c6         1 G6M       0.149300
     10 C16          7.3100     0.4060    -0.7160 c6         1 G6M       0.151100
     11 C18          6.8820     0.9330     1.5050 c6         1 G6M       0.151100
     12 C19          5.4050     1.1120     1.2140 c6         1 G6M       0.149300
     13 C20         -3.4050     0.7280    -0.1800 c3         1 G6M       0.090000
     14 C30         -5.7880     0.2460    -0.4320 c          1 G6M       0.598100
     15 C31         -6.9610    -0.4340     0.2540 c3         1 G6M       0.020600
     16 C9          -1.2910     0.4570    -1.5490 c5         1 G6M       0.068000
     17 F7           3.4710    -1.1770     1.8000 f          1 G6M      -0.168000
     18 N14          5.0290     0.2720     0.0800 nh         1 G6M      -0.763400
     19 N29         -4.6380     0.1180     0.2500 ns         1 G6M      -0.504900
     20 N8          -0.5000    -0.4310    -0.7190 n          1 G6M      -0.259400
     21 O11         -2.4710    -1.4110    -0.8110 os         1 G6M      -0.410100
     22 O17          7.6750     1.2220     0.3750 os         1 G6M      -0.449000
     23 O32         -5.8940     0.8710    -1.4700 o          1 G6M      -0.572100
     24 CL33        -8.3400    -0.6100    -0.8470 cl         1 G6M      -0.216000
     25 H6           3.5210     1.2710    -1.9620 ha         1 G6M       0.120000
     26 H5           1.1550     0.9100    -2.3090 ha         1 G6M       0.118000
     27 H3           0.9870    -1.3780     1.3350 ha         1 G6M       0.155000
     28 H10         -3.3050    -0.1200    -2.1640 h1         1 G6M       0.109700
     29 H15          5.6830     1.6050    -1.4470 h1         1 G6M       0.047200
     30 H151         5.6030    -0.1060    -1.8930 h1         1 G6M       0.047200
     31 H16          7.5020    -0.6510    -0.4870 h1         1 G6M       0.054700
     32 H161         7.9380     0.6900    -1.5620 h1         1 G6M       0.054700
     33 H18          7.1890     1.6100     2.3030 h1         1 G6M       0.054700
     34 H181         7.0590    -0.0980     1.8450 h1         1 G6M       0.054700
     35 H191         4.8400     0.8330     2.1020 h1         1 G6M       0.047200
     36 H19          5.1900     2.1710     1.0070 h1         1 G6M       0.047200
     37 H20         -2.7590     0.8320     0.6940 h1         1 G6M       0.067700
     38 H201        -3.5960     1.7320    -0.5600 h1         1 G6M       0.067700
     39 H311        -6.6860    -1.4220     0.6210 h1         1 G6M       0.081200
     40 H31         -7.2820     0.1660     1.1070 h1         1 G6M       0.081200
     41 H91         -1.0300     0.3660    -2.6060 h1         1 G6M       0.068200
     42 H9          -1.1660     1.4980    -1.2500 h1         1 G6M       0.068200
     43 HN29        -4.6130    -0.4610     1.0730 hn         1 G6M       0.326500
     44 O13         -0.8030    -2.5720     0.1020 o          1 G6M      -0.510000
@<TRIPOS>BOND
     1     1     2 ar  
     2     1     6 ar  
     3     1    25 1   
     4     2     3 ar  
     5     2    26 1   
     6     3     4 ar  
     7     3    20 1   
     8     4     5 ar  
     9     4    27 1   
    10     5     6 ar  
    11     5    17 1   
    12     6    18 1   
    13     7    13 1   
    14     7    16 1   
    15     7    21 1   
    16     7    28 1   
    17     8    20 1   
    18     8    21 1   
    19     8    44 2   
    20     9    10 1   
    21     9    18 1   
    22     9    29 1   
    23     9    30 1   
    24    10    22 1   
    25    10    31 1   
    26    10    32 1   
    27    11    12 1   
    28    11    22 1   
    29    11    33 1   
    30    11    34 1   
    31    12    18 1   
    32    12    35 1   
    33    12    36 1   
    34    13    19 1   
    35    13    37 1   
    36    13    38 1   
    37    14    15 1   
    38    14    19 1   
    39    14    23 2   
    40    15    24 1   
    41    15    39 1   
    42    15    40 1   
    43    16    20 1   
    44    16    41 1   
    45    16    42 1   
    46    19    43 1   
@<TRIPOS>SUBSTRUCTURE
     1 G6M         1 TEMP              0 ****  ****    0 ROOT
