@<TRIPOS>MOLECULE
G6M
   44    46     1     0     0
SMALL
No Charge or Current Charge


@<TRIPOS>ATOM
      1 C6           3.0130     0.7890    -1.2690 ca         1 G6M      -0.111000
      2 C5           1.6290     0.6120    -1.4480 ca         1 G6M      -0.151000
      3 C4           0.8470    -0.0460    -0.4770 ca         1 G6M      -0.002000
      4 C3           1.5090    -0.6250     0.6240 ca         1 G6M      -0.151000
      5 C2           2.8910    -0.4490     0.8100 ca         1 G6M       0.184000
      6 C1           3.6680     0.2740    -0.1320 ca         1 G6M       0.211000
      7 C10         -2.7870    -0.0160    -1.2290 c5         1 G6M       0.129300
      8 C12         -1.2310    -1.5030    -0.4130 c          1 G6M       0.696100
      9 C15          5.9980     0.4890    -1.1440 c6         1 G6M       0.149300
     10 C16          7.4690     0.1740    -0.7370 c6         1 G6M       0.151100
     11 C18          7.0760     0.8790     1.5320 c6         1 G6M       0.151100
     12 C19          5.5880     1.2240     1.2200 c6         1 G6M       0.149300
     13 C20         -3.5350     0.7210    -0.0860 c3         1 G6M       0.090000
     14 C30         -5.9450     0.0790    -0.4820 c          1 G6M       0.598100
     15 C31         -7.1420    -0.6650     0.1340 c3         1 G6M       0.020600
     16 C9          -1.3860     0.5860    -1.5290 c5         1 G6M       0.068000
     17 F7           3.4690    -1.0130     1.8990 f          1 G6M      -0.168000
     18 N14          5.0710     0.4660     0.0350 nh         1 G6M      -0.763400
     19 N29         -4.8130     0.1050     0.3050 ns         1 G6M      -0.504900
     20 N8          -0.5360    -0.3380    -0.7660 n          1 G6M      -0.259400
     21 O11         -2.5270    -1.3820    -0.8180 os         1 G6M      -0.410100
     22 O17          7.8960     1.0310     0.3490 os         1 G6M      -0.449000
     23 O32         -5.9770     0.6170    -1.5820 o          1 G6M      -0.572100
     24 Cl33        -8.6360    -0.7070    -0.9190 cl         1 G6M      -0.216000
     25 H6           3.5750     1.3310    -2.0230 ha         1 G6M       0.120000
     26 H5           1.1690     1.0010    -2.3540 ha         1 G6M       0.118000
     27 H3           0.9590    -1.1900     1.3700 ha         1 G6M       0.155000
     28 H10         -3.4230    -0.0180    -2.1250 h1         1 G6M       0.109700
     29 H15          5.9700     1.4770    -1.6250 h1         1 G6M       0.047200
     30 H151         5.6790    -0.2520    -1.8920 h1         1 G6M       0.047200
     31 H16          7.5520    -0.8760    -0.4220 h1         1 G6M       0.054700
     32 H161         8.1350     0.3240    -1.5990 h1         1 G6M       0.054700
     33 H18          7.4550     1.5420     2.3220 h1         1 G6M       0.054700
     34 H181         7.1500    -0.1570     1.8930 h1         1 G6M       0.054700
     35 H191         4.9880     1.0080     2.1150 h1         1 G6M       0.047200
     36 H19          5.5090     2.3040     1.0330 h1         1 G6M       0.047200
     37 H20         -2.8850     0.7610     0.7980 h1         1 G6M       0.067700
     38 H201        -3.7270     1.7560    -0.3990 h1         1 G6M       0.067700
     39 H311        -6.8420    -1.7000     0.3360 h1         1 G6M       0.081200
     40 H31         -7.4080    -0.1790     1.0790 h1         1 G6M       0.081200
     41 H91         -1.1540     0.5430    -2.6010 h1         1 G6M       0.068200
     42 H9          -1.2860     1.6240    -1.1850 h1         1 G6M       0.068200
     43 HN29        -4.8660    -0.3690     1.2010 hn         1 G6M       0.326500
     44 O13         -0.7720    -2.4950     0.1340 o          1 G6M      -0.510000
@<TRIPOS>BOND
     1     1     2 ar  
     2     1     6 ar  
     3     1    25 1   
     4     2     3 ar  
     5     2    26 1   
     6     3     4 ar  
     7     3    20 1   
     8     4     5 ar  
     9     4    27 1   
    10     5     6 ar  
    11     5    17 1   
    12     6    18 1   
    13     7    13 1   
    14     7    16 1   
    15     7    21 1   
    16     7    28 1   
    17     8    20 1   
    18     8    21 1   
    19     8    44 2   
    20     9    10 1   
    21     9    18 1   
    22     9    29 1   
    23     9    30 1   
    24    10    22 1   
    25    10    31 1   
    26    10    32 1   
    27    11    12 1   
    28    11    22 1   
    29    11    33 1   
    30    11    34 1   
    31    12    18 1   
    32    12    35 1   
    33    12    36 1   
    34    13    19 1   
    35    13    37 1   
    36    13    38 1   
    37    14    15 1   
    38    14    19 1   
    39    14    23 2   
    40    15    24 1   
    41    15    39 1   
    42    15    40 1   
    43    16    20 1   
    44    16    41 1   
    45    16    42 1   
    46    19    43 1   
@<TRIPOS>SUBSTRUCTURE
     1 G6M         1 TEMP              0 ****  ****    0 ROOT
