@<TRIPOS>MOLECULE
G6O
   37    39     1     0     0
SMALL
abcg2


@<TRIPOS>ATOM
      1 C1          96.4310   122.5350   117.7200 ca         1 G6O      -0.121300
      2 C2          96.9040   121.5840   116.8150 ca         1 G6O       0.109100
      3 C3          97.2940   123.5230   118.1850 ca         1 G6O      -0.143000
      4 C4          98.2270   121.6440   116.3880 ca         1 G6O      -0.111000
      5 C5          98.6150   123.5790   117.7620 ca         1 G6O       0.100100
      6 C6          99.0780   122.6310   116.8530 ca         1 G6O      -0.106000
      7 C7          95.0080   122.4470   118.1940 c6         1 G6O       0.209600
      8 C8          94.8230   120.4310   116.8200 c6         1 G6O       0.167600
      9 C9          94.1700   121.7730   117.1140 c6         1 G6O       0.111500
     10 C10         93.1280   123.7090   118.8670 c6         1 G6O       0.123600
     11 C11         92.5270   122.3100   118.8020 c6         1 G6O       0.138800
     12 C13         91.8140   121.0710   115.3020 c3         1 G6O      -0.081400
     13 O1          96.1340   120.5940   116.2970 os         1 G6O      -0.344100
     14 C14         90.7280   121.4580   114.3070 c3         1 G6O      -0.091100
     15 O3          99.4860   124.5190   118.1960 oh         1 G6O      -0.536100
     16 O2          94.5080   123.7190   118.5050 os         1 G6O      -0.449000
     17 N           92.7780   121.6360   117.5350 n3         1 G6O      -0.725600
     18 H1          96.9230   124.2600   118.8890 ha         1 G6O       0.126000
     19 H2          98.5910   120.9110   115.6790 ha         1 G6O       0.130000
     20 H3         100.1040   122.6660   116.5100 ha         1 G6O       0.130000
     21 H4          95.0010   121.8060   119.0890 h1         1 G6O       0.050700
     22 H5          94.2630   119.8700   116.0740 h1         1 G6O       0.062200
     23 H6          94.8530   119.8300   117.7380 h1         1 G6O       0.062200
     24 H7          94.2310   122.4000   116.2110 h1         1 G6O       0.068700
     25 H8          93.0150   124.1120   119.8780 h1         1 G6O       0.048200
     26 H9          92.5930   124.3780   118.1850 h1         1 G6O       0.048200
     27 H10         91.4500   122.3850   118.9590 h1         1 G6O       0.061700
     28 H11         92.9030   121.7010   119.6270 h1         1 G6O       0.061700
     29 H12         92.0040   123.0420   116.1320 h1         1 G6O       0.033200
     30 H13         90.8330   122.0110   116.9430 h1         1 G6O       0.033200
     31 H14         91.6540   120.0500   115.6570 hc         1 G6O       0.047700
     32 H15         92.7800   121.0790   114.7900 hc         1 G6O       0.047700
     33 H16         90.7160   120.7830   113.4510 hc         1 G6O       0.034367
     34 H17         89.7390   121.4270   114.7670 hc         1 G6O       0.034367
     35 H18         90.8820   122.4690   113.9260 hc         1 G6O       0.034367
     36 H19         99.0470   125.1280   118.8000 ho         1 G6O       0.463000
     37 C12         91.8310   122.0150   116.4960 c3         1 G6O       0.172800
@<TRIPOS>BOND
     1     1     2 ar  
     2     1     3 ar  
     3     1     7 1   
     4     2     4 ar  
     5     2    13 1   
     6     3     5 ar  
     7     3    18 1   
     8     4     6 ar  
     9     4    19 1   
    10     5     6 ar  
    11     5    15 1   
    12     6    20 1   
    13     7     9 1   
    14     7    16 1   
    15     7    21 1   
    16     8     9 1   
    17     8    13 1   
    18     8    22 1   
    19     8    23 1   
    20     9    17 1   
    21     9    24 1   
    22    10    11 1   
    23    10    16 1   
    24    10    25 1   
    25    10    26 1   
    26    11    17 1   
    27    11    27 1   
    28    11    28 1   
    29    12    14 1   
    30    12    31 1   
    31    12    32 1   
    32    12    37 1   
    33    14    33 1   
    34    14    34 1   
    35    14    35 1   
    36    15    36 1   
    37    17    37 1   
    38    29    37 1   
    39    30    37 1   
@<TRIPOS>SUBSTRUCTURE
     1 G6O         1 TEMP              0 ****  ****    0 ROOT
