@<TRIPOS>MOLECULE
G6O
   37    39     1     0     0
SMALL
No Charge or Current Charge


@<TRIPOS>ATOM
      1 C1          96.4920   122.5440   117.7080 ca         1 G6O      -0.121300
      2 C2          96.9620   121.5940   116.7680 ca         1 G6O       0.109100
      3 C3          97.3800   123.5170   118.2150 ca         1 G6O      -0.143000
      4 C4          98.2930   121.6460   116.3230 ca         1 G6O      -0.111000
      5 C5          98.7130   123.5580   117.7710 ca         1 G6O       0.100100
      6 C6          99.1680   122.6260   116.8240 ca         1 G6O      -0.106000
      7 C7          95.0400   122.4740   118.1890 c6         1 G6O       0.209600
      8 C8          94.8160   120.4040   116.8130 c6         1 G6O       0.167600
      9 C9          94.1430   121.7540   117.1450 c6         1 G6O       0.111500
     10 C10         93.1320   123.7850   118.9480 c6         1 G6O       0.123600
     11 C11         92.4240   122.3860   118.8480 c6         1 G6O       0.138800
     12 C13         91.7950   121.0720   115.2430 c3         1 G6O      -0.081400
     13 O1          96.1320   120.6180   116.2450 os         1 G6O      -0.344100
     14 C14         90.6840   121.3740   114.2180 c3         1 G6O      -0.091100
     15 O3          99.5710   124.5010   118.2560 oh         1 G6O      -0.536100
     16 O2          94.4880   123.7920   118.4120 os         1 G6O      -0.449000
     17 N           92.6930   121.6440   117.5690 n3         1 G6O      -0.725600
     18 H1          97.0290   124.2370   118.9500 ha         1 G6O       0.126000
     19 H2          98.6470   120.9240   115.5920 ha         1 G6O       0.130000
     20 H3         100.1990   122.6610   116.4800 ha         1 G6O       0.130000
     21 H4          95.0330   121.9170   119.1380 h1         1 G6O       0.050700
     22 H5          94.2120   119.8290   116.0980 h1         1 G6O       0.062200
     23 H6          94.9150   119.8060   117.7300 h1         1 G6O       0.062200
     24 H7          94.1990   122.3670   116.2330 h1         1 G6O       0.068700
     25 H8          93.1610   124.1030   120.0000 h1         1 G6O       0.048200
     26 H9          92.5440   124.5300   118.3930 h1         1 G6O       0.048200
     27 H10         91.3440   122.5150   119.0130 h1         1 G6O       0.061700
     28 H11         92.7780   121.7790   119.6930 h1         1 G6O       0.061700
     29 H12         91.8610   123.0220   116.1780 h1         1 G6O       0.033200
     30 H13         90.7030   121.9010   116.8950 h1         1 G6O       0.033200
     31 H14         91.7160   120.0230   115.5540 hc         1 G6O       0.047700
     32 H15         92.7650   121.1930   114.7490 hc         1 G6O       0.047700
     33 H16         90.7740   120.7100   113.3500 hc         1 G6O       0.034367
     34 H17         89.6930   121.2250   114.6640 hc         1 G6O       0.034367
     35 H18         90.7540   122.4110   113.8670 hc         1 G6O       0.034367
     36 H19         99.0880   125.0650   118.8970 ho         1 G6O       0.463000
     37 C12         91.7230   121.9790   116.4930 c3         1 G6O       0.172800
@<TRIPOS>BOND
     1     1     2 ar  
     2     1     3 ar  
     3     1     7 1   
     4     2     4 ar  
     5     2    13 1   
     6     3     5 ar  
     7     3    18 1   
     8     4     6 ar  
     9     4    19 1   
    10     5     6 ar  
    11     5    15 1   
    12     6    20 1   
    13     7     9 1   
    14     7    16 1   
    15     7    21 1   
    16     8     9 1   
    17     8    13 1   
    18     8    22 1   
    19     8    23 1   
    20     9    17 1   
    21     9    24 1   
    22    10    11 1   
    23    10    16 1   
    24    10    25 1   
    25    10    26 1   
    26    11    17 1   
    27    11    27 1   
    28    11    28 1   
    29    12    14 1   
    30    12    31 1   
    31    12    32 1   
    32    12    37 1   
    33    14    33 1   
    34    14    34 1   
    35    14    35 1   
    36    15    36 1   
    37    17    37 1   
    38    29    37 1   
    39    30    37 1   
@<TRIPOS>SUBSTRUCTURE
     1 G6O         1 TEMP              0 ****  ****    0 ROOT
