@<TRIPOS>MOLECULE
G6P
   27    27     1     0     0
SMALL
No Charge or Current Charge


@<TRIPOS>ATOM
      1 C1          44.9870    11.4450    13.9740 c6         1 G6P       0.364300
      2 C2          43.6180    12.1410    13.6570 c6         1 G6P       0.059300
      3 C3          43.5200    12.4500    12.1350 c6         1 G6P       0.125300
      4 C4          44.7530    13.2760    11.6700 c6         1 G6P       0.137300
      5 C5          46.0580    12.4980    12.0270 c6         1 G6P       0.143300
      6 C6          47.3400    13.3130    11.6600 c3         1 G6P       0.266600
      7 O1          45.0340    10.1450    13.3880 oh         1 G6P      -0.727000
      8 O2          42.4890    11.3320    14.0760 oh         1 G6P      -0.739000
      9 O3          42.2940    13.1460    11.8540 oh         1 G6P      -0.736000
     10 O4          44.6340    13.5410    10.2620 oh         1 G6P      -0.685000
     11 O5          46.0850    12.2270    13.4600 os         1 G6P      -0.416000
     12 O6          48.5140    12.5040    11.8290 os         1 G6P      -0.570400
     13 P           49.9420    13.1510    11.4780 p5         1 G6P       1.271900
     14 O1P         50.1800    14.3420    12.3360 o          1 G6P      -0.923833
     15 O2P         51.0020    12.1390    11.7370 o          1 G6P      -0.923833
     16 O3P         49.9770    13.5400    10.0420 o          1 G6P      -0.923833
     17 H1          45.0930    11.3580    15.0680 h2         1 G6P       0.077700
     18 H2          43.6070    13.1000    14.1970 h1         1 G6P       0.052700
     19 H3          43.5270    11.4940    11.5900 h1         1 G6P       0.039700
     20 H4          44.7600    14.2280    12.2240 h1         1 G6P       0.046700
     21 H5          46.0830    11.5490    11.4730 h1         1 G6P       0.052700
     22 H61         47.3840    14.2080    12.2960 h1         1 G6P       0.011200
     23 H62         47.2600    13.6440    10.6160 h1         1 G6P       0.011200
     24 HO1         44.1140     9.8130    13.4990 ho         1 G6P       0.501000
     25 HO2         42.3620    11.4740    15.0460 ho         1 G6P       0.499000
     26 HO3         41.6310    12.7120    12.4450 ho         1 G6P       0.498000
     27 HO4         43.6660    13.6750    10.1250 ho         1 G6P       0.487000
@<TRIPOS>BOND
     1     1     2 1   
     2     1     7 1   
     3     1    11 1   
     4     1    17 1   
     5     2     3 1   
     6     2     8 1   
     7     2    18 1   
     8     3     4 1   
     9     3     9 1   
    10     3    19 1   
    11     4     5 1   
    12     4    10 1   
    13     4    20 1   
    14     5     6 1   
    15     5    11 1   
    16     5    21 1   
    17     6    12 1   
    18     6    22 1   
    19     6    23 1   
    20     7    24 1   
    21     8    25 1   
    22     9    26 1   
    23    10    27 1   
    24    12    13 1   
    25    13    14 1   
    26    13    15 1   
    27    13    16 1   
@<TRIPOS>SUBSTRUCTURE
     1 G6P         1 TEMP              0 ****  ****    0 ROOT
