@<TRIPOS>MOLECULE
G6P
   27    27     1     0     0
SMALL
bcc


@<TRIPOS>ATOM
      1 C1          44.9900    11.4540    14.0080 c6         1 G6P       0.317900
      2 C2          43.6500    12.1430    13.7010 c6         1 G6P       0.036100
      3 C3          43.5250    12.4570    12.2150 c6         1 G6P       0.102100
      4 C4          44.7400    13.2440    11.7430 c6         1 G6P       0.114100
      5 C5          46.0200    12.4910    12.1070 c6         1 G6P       0.120100
      6 C6          47.2670    13.2930    11.7770 c3         1 G6P       0.243400
      7 O1          45.0490    10.1230    13.6100 oh         1 G6P      -0.604800
      8 O2          42.5430    11.3590    14.0680 oh         1 G6P      -0.616800
      9 O3          42.3800    13.2300    11.9400 oh         1 G6P      -0.613800
     10 O4          44.7170    13.4270    10.3480 oh         1 G6P      -0.562800
     11 O5          46.0400    12.2300    13.5020 os         1 G6P      -0.369600
     12 O6          48.4070    12.5380    12.0300 os         1 G6P      -0.547200
     13 P           49.8930    13.1350    11.3960 p5         1 G6P       1.271900
     14 O1P         50.0130    14.5420    11.9760 o          1 G6P      -0.923833
     15 O2P         50.8710    12.1100    11.9530 o          1 G6P      -0.923833
     16 O3P         49.7060    13.0950     9.8820 o          1 G6P      -0.923833
     17 H1          45.1500    11.4460    15.0910 h2         1 G6P       0.077700
     18 H2          43.6570    13.0980    14.2450 h1         1 G6P       0.052700
     19 H3          43.4920    11.5170    11.6390 h1         1 G6P       0.039700
     20 H4          44.7490    14.2130    12.2690 h1         1 G6P       0.046700
     21 H5          46.0450    11.5510    11.5340 h1         1 G6P       0.052700
     22 H61         47.2390    14.2220    12.3700 h1         1 G6P       0.011200
     23 H62         47.2000    13.5970    10.7250 h1         1 G6P       0.011200
     24 HO1         44.5990     9.9840    12.7710 ho         1 G6P       0.402000
     25 HO2         42.4670    11.3550    15.0270 ho         1 G6P       0.400000
     26 HO3         41.6000    12.6950    12.1160 ho         1 G6P       0.399000
     27 HO4         43.9060    13.8940    10.1220 ho         1 G6P       0.388000
@<TRIPOS>BOND
     1     1     2 1   
     2     1     7 1   
     3     1    11 1   
     4     1    17 1   
     5     2     3 1   
     6     2     8 1   
     7     2    18 1   
     8     3     4 1   
     9     3     9 1   
    10     3    19 1   
    11     4     5 1   
    12     4    10 1   
    13     4    20 1   
    14     5     6 1   
    15     5    11 1   
    16     5    21 1   
    17     6    12 1   
    18     6    22 1   
    19     6    23 1   
    20     7    24 1   
    21     8    25 1   
    22     9    26 1   
    23    10    27 1   
    24    12    13 1   
    25    13    14 1   
    26    13    15 1   
    27    13    16 1   
@<TRIPOS>SUBSTRUCTURE
     1 G6P         1 TEMP              0 ****  ****    0 ROOT
