@<TRIPOS>MOLECULE
G6Q
   27    26     1     0     0
SMALL
No Charge or Current Charge


@<TRIPOS>ATOM
      1 C1           0.7600     0.7760    -4.9540 c          1 G6Q       0.548900
      2 C2           0.0210    -0.0400    -3.8540 c3         1 G6Q       0.028300
      3 C3           0.2680     0.4980    -2.4070 c3         1 G6Q       0.150300
      4 C4          -0.3630    -0.4350    -1.3230 c3         1 G6Q       0.106300
      5 C5           0.1390    -0.1260     0.1290 c3         1 G6Q       0.113300
      6 C6          -0.5560    -1.0230     1.2140 c3         1 G6Q       0.224600
      7 O1           1.6860     1.5570    -4.7480 o          1 G6Q      -0.519100
      8 O2          -1.4080    -0.1510    -4.0990 oh         1 G6Q      -0.705000
      9 O3          -0.3450     1.7910    -2.2510 oh         1 G6Q      -0.730000
     10 O4          -1.8070    -0.3010    -1.4190 oh         1 G6Q      -0.766000
     11 O5           1.5730    -0.2750     0.1920 oh         1 G6Q      -0.710000
     12 O6           0.0770    -0.9830     2.5150 os         1 G6Q      -0.563400
     13 P            0.6620     0.3430     3.2160 p5         1 G6Q       1.269900
     14 O1P         -0.3540     1.4270     3.1770 o          1 G6Q      -0.923167
     15 O2P          0.9950     0.0280     4.6310 o          1 G6Q      -0.923167
     16 O3P          1.8990     0.7570     2.5000 o          1 G6Q      -0.923167
     17 H1           0.4300     0.5610    -5.9950 h4         1 G6Q      -0.032800
     18 H2           0.4710    -1.0410    -3.9080 h1         1 G6Q       0.089700
     19 H3           1.3550     0.5550    -2.2450 h1         1 G6Q       0.101700
     20 H4          -0.0740    -1.4700    -1.5580 h1         1 G6Q       0.034700
     21 H5          -0.1270     0.9170     0.3520 h1         1 G6Q       0.079700
     22 H61         -1.6050    -0.7150     1.3100 h1         1 G6Q      -0.007800
     23 H62         -0.5610    -2.0610     0.8550 h1         1 G6Q      -0.007800
     24 HO2         -1.8070    -0.2450    -3.1880 ho         1 G6Q       0.507000
     25 HO3         -1.2330     1.5660    -1.8780 ho         1 G6Q       0.519000
     26 HO4         -2.2200    -0.9980    -0.8490 ho         1 G6Q       0.542000
     27 HO5          1.8100     0.1050     1.1030 ho         1 G6Q       0.495000
@<TRIPOS>BOND
     1     1     2 1   
     2     1     7 2   
     3     1    17 1   
     4     2     3 1   
     5     2     8 1   
     6     2    18 1   
     7     3     4 1   
     8     3     9 1   
     9     3    19 1   
    10     4     5 1   
    11     4    10 1   
    12     4    20 1   
    13     5     6 1   
    14     5    11 1   
    15     5    21 1   
    16     6    12 1   
    17     6    22 1   
    18     6    23 1   
    19     8    24 1   
    20     9    25 1   
    21    10    26 1   
    22    11    27 1   
    23    12    13 1   
    24    13    14 1   
    25    13    15 1   
    26    13    16 1   
@<TRIPOS>SUBSTRUCTURE
     1 G6Q         1 TEMP              0 ****  ****    0 ROOT
