@<TRIPOS>MOLECULE
G6Q
   27    26     1     0     0
SMALL
abcg2


@<TRIPOS>ATOM
      1 C1           0.6210    -0.2370    -5.0130 c          1 G6Q       0.548900
      2 C2          -0.2820    -0.3980    -3.8000 c3         1 G6Q       0.028300
      3 C3           0.3180     0.3020    -2.5750 c3         1 G6Q       0.150300
      4 C4          -0.3740    -0.0640    -1.2610 c3         1 G6Q       0.106300
      5 C5           0.4690     0.3480    -0.0360 c3         1 G6Q       0.113300
      6 C6          -0.1490    -0.1580     1.2630 c3         1 G6Q       0.224600
      7 O1           1.8230    -0.2910    -4.9810 o          1 G6Q      -0.519100
      8 O2          -1.5900    -0.0180    -4.1280 oh         1 G6Q      -0.705000
      9 O3           0.3370     1.6990    -2.7720 oh         1 G6Q      -0.730000
     10 O4          -1.6280     0.5880    -1.2670 oh         1 G6Q      -0.766000
     11 O5           1.8030    -0.0890    -0.1600 oh         1 G6Q      -0.710000
     12 O6           0.5140     0.4030     2.3480 os         1 G6Q      -0.563400
     13 P            0.1180    -0.2020     3.8980 p5         1 G6Q       1.269900
     14 O1P          0.5150    -1.6730     3.8570 o          1 G6Q      -0.923167
     15 O2P          0.9950     0.6830     4.7730 o          1 G6Q      -0.923167
     16 O3P         -1.3830     0.0350     4.0320 o          1 G6Q      -0.923167
     17 H1           0.0760    -0.0910    -5.9650 h4         1 G6Q      -0.032800
     18 H2          -0.3100    -1.4770    -3.5950 h1         1 G6Q       0.089700
     19 H3           1.3520    -0.0410    -2.5020 h1         1 G6Q       0.101700
     20 H4          -0.4980    -1.1590    -1.2350 h1         1 G6Q       0.034700
     21 H5           0.5120     1.4420    -0.0030 h1         1 G6Q       0.079700
     22 H61         -1.2250     0.0760     1.2990 h1         1 G6Q      -0.007800
     23 H62         -0.0900    -1.2590     1.2650 h1         1 G6Q      -0.007800
     24 HO2         -1.6350     0.9440    -4.1590 ho         1 G6Q       0.507000
     25 HO3         -0.4530     2.0670    -2.3570 ho         1 G6Q       0.519000
     26 HO4         -1.9780     0.6320    -0.3730 ho         1 G6Q       0.542000
     27 HO5          1.8280    -1.0440    -0.0330 ho         1 G6Q       0.495000
@<TRIPOS>BOND
     1     1     2 1   
     2     1     7 2   
     3     1    17 1   
     4     2     3 1   
     5     2     8 1   
     6     2    18 1   
     7     3     4 1   
     8     3     9 1   
     9     3    19 1   
    10     4     5 1   
    11     4    10 1   
    12     4    20 1   
    13     5     6 1   
    14     5    11 1   
    15     5    21 1   
    16     6    12 1   
    17     6    22 1   
    18     6    23 1   
    19     8    24 1   
    20     9    25 1   
    21    10    26 1   
    22    11    27 1   
    23    12    13 1   
    24    13    14 1   
    25    13    15 1   
    26    13    16 1   
@<TRIPOS>SUBSTRUCTURE
     1 G6Q         1 TEMP              0 ****  ****    0 ROOT
