@<TRIPOS>MOLECULE
G6R
   90    96     1     0     0
SMALL
abcg2


@<TRIPOS>ATOM
      1 C06         14.6520    21.9690    14.5350 ca         1 G6R      -0.168000
      2 C07         13.7350    22.7620    15.2230 ca         1 G6R      -0.022300
      3 C08         12.3740    22.5860    14.9940 ca         1 G6R      -0.168000
      4 C1          23.2330    28.0840    14.8980 cc         1 G6R       0.664100
      5 C10         13.3930    16.3080    18.8710 c5         1 G6R      -0.067400
      6 C11         12.9030    18.9320    16.4480 c5         1 G6R       0.159600
      7 C12         18.7700    24.8310    18.9720 c3         1 G6R       0.212800
      8 C13         18.3540    24.2500    20.3220 c3         1 G6R      -0.063700
      9 C14         18.3480    22.7280    20.3010 c3         1 G6R      -0.093100
     10 C15         19.2990    24.7810    21.3950 c3         1 G6R      -0.093100
     11 C16         16.5540    25.1740    17.8990 c3         1 G6R       0.192800
     12 C17         15.4140    24.2700    18.3970 c3         1 G6R       0.142300
     13 C19         14.9640    23.2100    17.3870 c3         1 G6R       0.128700
     14 C2          21.1360    27.4640    15.0110 ca         1 G6R       0.203400
     15 C29         26.1690    28.2410    16.2200 cx         1 G6R      -0.124400
     16 C3          19.7510    27.5090    14.8350 ca         1 G6R      -0.105000
     17 C32         14.2000    23.8050    16.2010 c3         1 G6R      -0.041100
     18 C33         14.1840    21.0340    13.6360 ca         1 G6R       0.197000
     19 C34         11.9590    21.6390    14.0770 ca         1 G6R       0.197000
     20 C35         12.8400    20.8430    13.3740 ca         1 G6R      -0.207000
     21 C36         26.6540    29.3310    15.3200 cx         1 G6R      -0.124400
     22 C39         21.7040    26.3460    15.6520 ca         1 G6R      -0.237000
     23 C4          18.9750    26.4580    15.2800 ca         1 G6R      -0.013000
     24 C49         13.9540    18.6150    18.8260 c5         1 G6R      -0.043700
     25 C5          19.5680    25.3600    15.9120 ca         1 G6R      -0.326500
     26 C59         13.8350    18.1490    17.3500 c5         1 G6R      -0.097700
     27 C6          20.9410    25.2880    16.1070 ca         1 G6R       0.050000
     28 C69         13.1070    16.8020    17.4590 c5         1 G6R      -0.131700
     29 C7          11.6200    17.2180    17.3420 c5         1 G6R       0.383300
     30 C79         25.6420    28.3580    14.8170 cx         1 G6R       0.142500
     31 C9          13.1240    17.6010    19.6390 c5         1 G6R      -0.100700
     32 F1          15.0650    20.2700    12.9760 f          1 G6R      -0.173500
     33 F2          10.6470    21.4820    13.8600 f          1 G6R      -0.173500
     34 N1          22.0150    28.4190    14.5970 nd         1 G6R      -0.651100
     35 N2          24.3110    28.8250    14.6270 nu         1 G6R      -0.852400
     36 N20         14.1620    22.1940    18.0330 ns         1 G6R      -0.505900
     37 O1          10.9480    17.1940    18.5570 os         1 G6R      -0.452000
     38 O18         14.2880    25.0480    18.7280 oh         1 G6R      -0.662000
     39 O2          11.5950    18.5170    16.7970 os         1 G6R      -0.478000
     40 O22         15.8280    20.6880    18.2700 o          1 G6R      -0.607100
     41 C23         13.6590    20.0820    19.1020 c3         1 G6R      -0.149400
     42 S1          23.4310    26.5420    15.7260 ss         1 G6R      -0.001200
     43 S8          18.5340    24.0340    16.4590 sy         1 G6R       1.174600
     44 H1          15.7170    22.0890    14.6870 ha         1 G6R       0.146500
     45 H2          11.6420    23.1860    15.5200 ha         1 G6R       0.146500
     46 H3          12.7710    15.4660    19.1820 hc         1 G6R       0.057700
     47 H4          14.4360    16.0000    18.9680 hc         1 G6R       0.057700
     48 H5          12.9640    20.0170    16.5500 h1         1 G6R       0.051200
     49 H6          13.1190    18.6960    15.3990 h1         1 G6R       0.051200
     50 H7          19.7670    24.4540    18.7380 h1         1 G6R       0.047700
     51 H8          18.8530    25.9220    19.0450 h1         1 G6R       0.047700
     52 H9          17.3480    24.6100    20.5630 hc         1 G6R       0.039700
     53 H10         18.0250    22.3290    21.2630 hc         1 G6R       0.040867
     54 H11         17.6820    22.3290    19.5370 hc         1 G6R       0.040867
     55 H12         19.3500    22.3420    20.1010 hc         1 G6R       0.040867
     56 H13         19.0140    24.4100    22.3800 hc         1 G6R       0.040867
     57 H14         20.3260    24.4630    21.2070 hc         1 G6R       0.040867
     58 H15         19.2880    25.8720    21.4370 hc         1 G6R       0.040867
     59 H16         16.6390    26.0220    18.5850 h1         1 G6R       0.054200
     60 H17         16.3120    25.6050    16.9260 h1         1 G6R       0.054200
     61 H18         15.7820    23.7260    19.2770 h1         1 G6R       0.055700
     62 H19         15.8570    22.7050    17.0220 h1         1 G6R       0.098700
     63 H20         25.5060    28.5170    17.0290 hc         1 G6R       0.084950
     64 H21         26.8270    27.4100    16.4360 hc         1 G6R       0.084950
     65 H22         19.2970    28.3570    14.3410 ha         1 G6R       0.135000
     66 H23         14.8480    24.5160    15.6850 hc         1 G6R       0.068700
     67 H24         13.3360    24.3680    16.5560 hc         1 G6R       0.068700
     68 H25         12.4980    20.1030    12.6620 ha         1 G6R       0.148000
     69 H26         27.6530    29.2650    14.9100 hc         1 G6R       0.084950
     70 H27         26.3150    30.3390    15.5250 hc         1 G6R       0.084950
     71 H28         17.9060    26.4910    15.1220 ha         1 G6R       0.128000
     72 H29         14.9910    18.4440    19.1260 hc         1 G6R       0.070700
     73 H30         14.8210    18.0600    16.8920 hc         1 G6R       0.083700
     74 H31         21.3980    24.4320    16.5850 ha         1 G6R       0.145000
     75 H32         13.3720    16.1000    16.6670 hc         1 G6R       0.074700
     76 H33         11.0560    16.5390    16.6960 h2         1 G6R       0.088700
     77 H34         25.9830    27.6180    14.0980 h1         1 G6R       0.091700
     78 H37         13.4690    17.5750    20.6750 hc         1 G6R       0.061700
     79 H38         24.1570    29.6470    14.0610 hn         1 G6R       0.514000
     80 H39         13.1930    22.4000    18.2220 hn         1 G6R       0.320500
     81 H40         14.4930    25.5760    19.5070 ho         1 G6R       0.443000
     82 H41         13.7320    20.2610    20.1810 hc         1 G6R       0.063200
     83 H42         12.6410    20.3590    18.8210 hc         1 G6R       0.063200
     84 N11         17.8480    24.4960    17.8850 n3         1 G6R      -0.752500
     85 C21         14.6560    21.0050    18.4280 c          1 G6R       0.595100
     86 C8          11.6070    17.8270    19.6450 c6         1 G6R       0.162600
     87 O10         19.3880    22.8910    16.7380 o          1 G6R      -0.537000
     88 O9          17.4580    23.8950    15.4870 o          1 G6R      -0.537000
     89 H35         11.1830    17.3700    20.5420 h1         1 G6R       0.045200
     90 H36         11.3530    18.8920    19.6840 h1         1 G6R       0.045200
@<TRIPOS>BOND
     1     1     2 ar  
     2     1    18 ar  
     3     1    44 1   
     4     2     3 ar  
     5     2    17 1   
     6     3    19 ar  
     7     3    45 1   
     8     4    34 2   
     9     4    35 1   
    10     4    42 1   
    11     5    28 1   
    12     5    31 1   
    13     5    46 1   
    14     5    47 1   
    15     6    26 1   
    16     6    39 1   
    17     6    48 1   
    18     6    49 1   
    19     7     8 1   
    20     7    50 1   
    21     7    51 1   
    22     7    84 1   
    23     8     9 1   
    24     8    10 1   
    25     8    52 1   
    26     9    53 1   
    27     9    54 1   
    28     9    55 1   
    29    10    56 1   
    30    10    57 1   
    31    10    58 1   
    32    11    12 1   
    33    11    59 1   
    34    11    60 1   
    35    11    84 1   
    36    12    13 1   
    37    12    38 1   
    38    12    61 1   
    39    13    17 1   
    40    13    36 1   
    41    13    62 1   
    42    14    16 ar  
    43    14    22 ar  
    44    14    34 1   
    45    15    21 1   
    46    15    30 1   
    47    15    63 1   
    48    15    64 1   
    49    16    23 ar  
    50    16    65 1   
    51    17    66 1   
    52    17    67 1   
    53    18    20 ar  
    54    18    32 1   
    55    19    20 ar  
    56    19    33 1   
    57    20    68 1   
    58    21    30 1   
    59    21    69 1   
    60    21    70 1   
    61    22    27 ar  
    62    22    42 1   
    63    23    25 ar  
    64    23    71 1   
    65    24    26 1   
    66    24    31 1   
    67    24    41 1   
    68    24    72 1   
    69    25    27 ar  
    70    25    43 1   
    71    26    28 1   
    72    26    73 1   
    73    27    74 1   
    74    28    29 1   
    75    28    75 1   
    76    29    37 1   
    77    29    39 1   
    78    29    76 1   
    79    30    35 1   
    80    30    77 1   
    81    31    78 1   
    82    31    86 1   
    83    35    79 1   
    84    36    80 1   
    85    36    85 1   
    86    37    86 1   
    87    38    81 1   
    88    40    85 2   
    89    41    82 1   
    90    41    83 1   
    91    41    85 1   
    92    43    84 1   
    93    43    87 2   
    94    43    88 2   
    95    86    89 1   
    96    86    90 1   
@<TRIPOS>SUBSTRUCTURE
     1 G6R         1 TEMP              0 ****  ****    0 ROOT
