@<TRIPOS>MOLECULE
G6R
   90    96     1     0     0
SMALL
No Charge or Current Charge


@<TRIPOS>ATOM
      1 C06         15.4080    20.4210    14.8130 ca         1 G6R      -0.168000
      2 C07         14.5950    21.5470    15.0540 ca         1 G6R      -0.022300
      3 C08         13.2610    21.5340    14.5990 ca         1 G6R      -0.168000
      4 C1          22.8100    28.8860    15.4100 cc         1 G6R       0.664100
      5 C10         11.3430    17.0930    18.5270 c5         1 G6R      -0.067400
      6 C11         11.5580    20.5320    17.3510 c5         1 G6R       0.159600
      7 C12         19.8150    23.5980    18.2120 c3         1 G6R       0.212800
      8 C13         19.3400    23.2610    19.6510 c3         1 G6R      -0.063700
      9 C14         18.8970    21.7840    19.7920 c3         1 G6R      -0.093100
     10 C15         20.4370    23.6010    20.6860 c3         1 G6R      -0.093100
     11 C16         17.6410    24.3170    17.2030 c3         1 G6R       0.192800
     12 C17         16.3830    23.7050    17.8950 c3         1 G6R       0.142300
     13 C19         15.8070    22.4620    17.1480 c3         1 G6R       0.128700
     14 C2          21.0610    27.6590    14.9830 ca         1 G6R       0.203400
     15 C29         25.0190    30.5120    17.3560 cx         1 G6R      -0.124400
     16 C3          19.7870    27.3110    14.5140 ca         1 G6R      -0.105000
     17 C32         15.1500    22.7750    15.7730 c3         1 G6R      -0.041100
     18 C33         14.8870    19.2990    14.1520 ca         1 G6R       0.197000
     19 C34         12.7490    20.4080    13.9350 ca         1 G6R       0.197000
     20 C35         13.5570    19.2860    13.7120 ca         1 G6R      -0.207000
     21 C36         25.1370    31.6800    16.4080 cx         1 G6R      -0.124400
     22 C39         21.8470    26.7080    15.6050 ca         1 G6R      -0.237000
     23 C4          19.3190    25.9940    14.6850 ca         1 G6R      -0.013000
     24 C49         13.0390    18.7640    18.6460 c5         1 G6R      -0.043700
     25 C5          20.1300    25.0300    15.3310 ca         1 G6R      -0.326500
     26 C59         12.1420    19.0870    17.3810 c5         1 G6R      -0.097700
     27 C6          21.4140    25.3870    15.7910 ca         1 G6R       0.050000
     28 C69         10.8450    18.2670    17.6260 c5         1 G6R      -0.131700
     29 C7           9.9310    19.2760    18.4470 c5         1 G6R       0.383300
     30 C79         24.8470    30.3010    15.8730 cx         1 G6R       0.142500
     31 C9          12.1160    17.9130    19.5920 c5         1 G6R      -0.100700
     32 F1          15.6740    18.2230    13.9350 f          1 G6R      -0.173500
     33 F2          11.4660    20.4030    13.5150 f          1 G6R      -0.173500
     34 N1          21.6040    28.9330    14.8590 nd         1 G6R      -0.651100
     35 N2          23.5200    30.0440    15.3960 nu         1 G6R      -0.852400
     36 N20         14.8590    21.7430    18.0140 ns         1 G6R      -0.505900
     37 O1           9.8780    18.9250    19.8490 os         1 G6R      -0.452000
     38 O18         15.3600    24.7110    18.0600 oh         1 G6R      -0.662000
     39 O2          10.5590    20.5700    18.3820 os         1 G6R      -0.478000
     40 O22         15.9410    19.7400    18.0920 o          1 G6R      -0.607100
     41 C23         13.8600    19.9080    19.3120 c3         1 G6R      -0.149400
     42 S1          23.3980    27.3580    16.1080 ss         1 G6R      -0.001200
     43 S8          19.5380    23.3470    15.5630 sy         1 G6R       1.174600
     44 H1          16.4450    20.4090    15.1370 ha         1 G6R       0.146500
     45 H2          12.6150    22.3930    14.7610 ha         1 G6R       0.146500
     46 H3          10.5230    16.5010    18.9530 hc         1 G6R       0.057700
     47 H4          11.9930    16.4000    17.9800 hc         1 G6R       0.057700
     48 H5          12.3000    21.3220    17.5090 h1         1 G6R       0.051200
     49 H6          11.0630    20.7260    16.3890 h1         1 G6R       0.051200
     50 H7          20.6990    22.9700    18.0370 h1         1 G6R       0.047700
     51 H8          20.1700    24.6380    18.2030 h1         1 G6R       0.047700
     52 H9          18.4880    23.9040    19.8930 hc         1 G6R       0.039700
     53 H10         18.5080    21.5900    20.7980 hc         1 G6R       0.040867
     54 H11         18.1090    21.5330    19.0730 hc         1 G6R       0.040867
     55 H12         19.7410    21.1070    19.6140 hc         1 G6R       0.040867
     56 H13         20.0820    23.4070    21.7050 hc         1 G6R       0.040867
     57 H14         21.3380    22.9980    20.5160 hc         1 G6R       0.040867
     58 H15         20.7160    24.6600    20.6220 hc         1 G6R       0.040867
     59 H16         17.9220    25.2350    17.7370 h1         1 G6R       0.054200
     60 H17         17.3210    24.6490    16.2080 h1         1 G6R       0.054200
     61 H18         16.6850    23.3530    18.8870 h1         1 G6R       0.055700
     62 H19         16.6620    21.8000    16.9570 h1         1 G6R       0.098700
     63 H20         24.1350    30.4570    17.9860 hc         1 G6R       0.084950
     64 H21         25.9290    30.1350    17.8140 hc         1 G6R       0.084950
     65 H22         19.1670    28.0540    14.0210 ha         1 G6R       0.135000
     66 H23         15.8790    23.2660    15.1210 hc         1 G6R       0.068700
     67 H24         14.3480    23.5080    15.9250 hc         1 G6R       0.068700
     68 H25         13.1570    18.4150    13.2000 ha         1 G6R       0.148000
     69 H26         26.1280    32.0900    16.2290 hc         1 G6R       0.084950
     70 H27         24.3350    32.4140    16.4060 hc         1 G6R       0.084950
     71 H28         18.3300    25.7300    14.3150 ha         1 G6R       0.128000
     72 H29         13.8170    18.0720    18.2980 hc         1 G6R       0.070700
     73 H30         12.6480    18.8240    16.4460 hc         1 G6R       0.083700
     74 H31         22.0620    24.6620    16.2840 ha         1 G6R       0.145000
     75 H32         10.3620    17.9350    16.7000 hc         1 G6R       0.074700
     76 H33          8.9170    19.3200    18.0260 h2         1 G6R       0.088700
     77 H34         25.6450    29.7800    15.3380 h1         1 G6R       0.091700
     78 H37         12.7100    17.2750    20.2570 hc         1 G6R       0.061700
     79 H38         22.9840    30.7710    14.9280 hn         1 G6R       0.514000
     80 H39         14.0590    22.2560    18.3640 hn         1 G6R       0.320500
     81 H40         15.6550    25.3190    18.7740 ho         1 G6R       0.443000
     82 H41         14.3350    19.5080    20.2150 hc         1 G6R       0.063200
     83 H42         13.2030    20.7320    19.6090 hc         1 G6R       0.063200
     84 N11         18.8240    23.4070    17.1160 n3         1 G6R      -0.752500
     85 C21         14.9840    20.4300    18.4070 c          1 G6R       0.595100
     86 C8          11.1420    18.6980    20.5080 c6         1 G6R       0.162600
     87 O10         20.6820    22.4340    15.6660 o          1 G6R      -0.537000
     88 O9          18.4490    23.0650    14.6220 o          1 G6R      -0.537000
     89 H35         10.9440    18.1200    21.4220 h1         1 G6R       0.045200
     90 H36         11.5740    19.6600    20.8150 h1         1 G6R       0.045200
@<TRIPOS>BOND
     1     1     2 ar  
     2     1    18 ar  
     3     1    44 1   
     4     2     3 ar  
     5     2    17 1   
     6     3    19 ar  
     7     3    45 1   
     8     4    34 2   
     9     4    35 1   
    10     4    42 1   
    11     5    28 1   
    12     5    31 1   
    13     5    46 1   
    14     5    47 1   
    15     6    26 1   
    16     6    39 1   
    17     6    48 1   
    18     6    49 1   
    19     7     8 1   
    20     7    50 1   
    21     7    51 1   
    22     7    84 1   
    23     8     9 1   
    24     8    10 1   
    25     8    52 1   
    26     9    53 1   
    27     9    54 1   
    28     9    55 1   
    29    10    56 1   
    30    10    57 1   
    31    10    58 1   
    32    11    12 1   
    33    11    59 1   
    34    11    60 1   
    35    11    84 1   
    36    12    13 1   
    37    12    38 1   
    38    12    61 1   
    39    13    17 1   
    40    13    36 1   
    41    13    62 1   
    42    14    16 ar  
    43    14    22 ar  
    44    14    34 1   
    45    15    21 1   
    46    15    30 1   
    47    15    63 1   
    48    15    64 1   
    49    16    23 ar  
    50    16    65 1   
    51    17    66 1   
    52    17    67 1   
    53    18    20 ar  
    54    18    32 1   
    55    19    20 ar  
    56    19    33 1   
    57    20    68 1   
    58    21    30 1   
    59    21    69 1   
    60    21    70 1   
    61    22    27 ar  
    62    22    42 1   
    63    23    25 ar  
    64    23    71 1   
    65    24    26 1   
    66    24    31 1   
    67    24    41 1   
    68    24    72 1   
    69    25    27 ar  
    70    25    43 1   
    71    26    28 1   
    72    26    73 1   
    73    27    74 1   
    74    28    29 1   
    75    28    75 1   
    76    29    37 1   
    77    29    39 1   
    78    29    76 1   
    79    30    35 1   
    80    30    77 1   
    81    31    78 1   
    82    31    86 1   
    83    35    79 1   
    84    36    80 1   
    85    36    85 1   
    86    37    86 1   
    87    38    81 1   
    88    40    85 2   
    89    41    82 1   
    90    41    83 1   
    91    41    85 1   
    92    43    84 1   
    93    43    87 2   
    94    43    88 2   
    95    86    89 1   
    96    86    90 1   
@<TRIPOS>SUBSTRUCTURE
     1 G6R         1 TEMP              0 ****  ****    0 ROOT
