@<TRIPOS>MOLECULE
G6S
   27    27     1     0     0
SMALL
No Charge or Current Charge


@<TRIPOS>ATOM
      1 C1           1.1920     0.3720     2.0290 c6         1 G6S       0.404300
      2 C2           1.1760    -0.2990     3.4520 c6         1 G6S       0.146300
      3 C3           1.7620     0.7000     4.4990 c6         1 G6S       0.131300
      4 C4           3.1650     1.2130     4.0500 c6         1 G6S       0.111300
      5 C5           3.0540     1.7930     2.6010 c6         1 G6S       0.148300
      6 C6           4.4320     2.2760     2.0520 c3         1 G6S       0.223600
      7 O1           0.8480    -0.5370     0.9990 oh         1 G6S      -0.694000
      8 O2          -0.1430    -0.7230     3.8800 oh         1 G6S      -0.718000
      9 O4           4.1100     0.1300     4.1410 oh         1 G6S      -0.699000
     10 O5           2.5180     0.7920     1.6940 os         1 G6S      -0.447000
     11 O6           4.2300     3.0820     0.8750 os         1 G6S      -0.592700
     12 S            5.5870     3.6890     0.1810 s6         1 G6S       1.498300
     13 O7           6.3760     2.4990    -0.1710 o          1 G6S      -0.707533
     14 O8           6.1880     4.5190     1.2350 o          1 G6S      -0.707533
     15 O9           5.0810     4.4460    -0.9730 o          1 G6S      -0.707533
     16 O3           1.8470     0.0680     5.7960 oh         1 G6S      -0.716000
     17 H1           0.5130     1.2390     2.0070 h2         1 G6S       0.017700
     18 H2           1.8450    -1.1710     3.4030 h1         1 G6S       0.083700
     19 H3           1.0870     1.5680     4.5540 h1         1 G6S       0.035700
     20 H4           3.4700     2.0260     4.7260 h1         1 G6S       0.030700
     21 H5           2.3750     2.6580     2.6160 h1         1 G6S       0.045700
     22 H61          4.9270     2.8600     2.8400 h1         1 G6S       0.039200
     23 H62          5.0550     1.3980     1.8360 h1         1 G6S       0.039200
     24 HO2         -0.0530    -0.8560     4.8550 ho         1 G6S       0.509000
     25 HO4          3.8080    -0.3990     4.9180 ho         1 G6S       0.506000
     26 HO3          1.8860     0.7880     6.4700 ho         1 G6S       0.500000
     27 HO1          1.5760    -0.4070     0.3540 ho         1 G6S       0.519000
@<TRIPOS>BOND
     1     1     2 1   
     2     1     7 1   
     3     1    10 1   
     4     1    17 1   
     5     2     3 1   
     6     2     8 1   
     7     2    18 1   
     8     3     4 1   
     9     3    16 1   
    10     3    19 1   
    11     4     5 1   
    12     4     9 1   
    13     4    20 1   
    14     5     6 1   
    15     5    10 1   
    16     5    21 1   
    17     6    11 1   
    18     6    22 1   
    19     6    23 1   
    20     7    27 1   
    21     8    24 1   
    22     9    25 1   
    23    11    12 1   
    24    12    13 1   
    25    12    14 1   
    26    12    15 1   
    27    16    26 1   
@<TRIPOS>SUBSTRUCTURE
     1 G6S         1 TEMP              0 ****  ****    0 ROOT
