@<TRIPOS>MOLECULE
G6S
   27    27     1     0     0
SMALL
bcc


@<TRIPOS>ATOM
      1 C1           1.3090     0.3330     2.0050 c6         1 G6S       0.357900
      2 C2           1.1750    -0.2840     3.3940 c6         1 G6S       0.123100
      3 C3           1.7050     0.7030     4.4300 c6         1 G6S       0.108100
      4 C4           3.1310     1.1370     4.0970 c6         1 G6S       0.088100
      5 C5           3.1160     1.6940     2.6720 c6         1 G6S       0.125100
      6 C6           4.4800     2.1590     2.2100 c3         1 G6S       0.200400
      7 O1           0.9550    -0.6080     1.0640 oh         1 G6S      -0.571800
      8 O2          -0.1840    -0.5680     3.6080 oh         1 G6S      -0.595800
      9 O4           3.9930     0.0350     4.2360 oh         1 G6S      -0.576800
     10 O5           2.6440     0.7170     1.7700 os         1 G6S      -0.400600
     11 O6           4.2990     2.8850     1.0070 os         1 G6S      -0.569500
     12 S            5.6060     3.6390     0.3490 s6         1 G6S       1.498300
     13 O7           6.5510     2.5700     0.0140 o          1 G6S      -0.707533
     14 O8           6.0970     4.5580     1.3780 o          1 G6S      -0.707533
     15 O9           4.9810     4.2900    -0.7990 o          1 G6S      -0.707533
     16 O3           1.5860     0.0940     5.6910 oh         1 G6S      -0.593800
     17 H1           0.6640     1.2290     1.9520 h2         1 G6S       0.017700
     18 H2           1.7860    -1.2000     3.4230 h1         1 G6S       0.083700
     19 H3           1.0800     1.6080     4.3740 h1         1 G6S       0.035700
     20 H4           3.4120     1.9530     4.7780 h1         1 G6S       0.030700
     21 H5           2.4450     2.5700     2.6740 h1         1 G6S       0.045700
     22 H61          4.9140     2.7950     2.9900 h1         1 G6S       0.039200
     23 H62          5.1470     1.3040     2.0590 h1         1 G6S       0.039200
     24 HO2         -0.2840    -0.8460     4.5250 ho         1 G6S       0.410000
     25 HO4          4.8810     0.3510     4.4250 ho         1 G6S       0.407000
     26 HO3          1.6390     0.7750     6.3690 ho         1 G6S       0.401000
     27 HO1          0.7850    -0.1710     0.2230 ho         1 G6S       0.420000
@<TRIPOS>BOND
     1     1     2 1   
     2     1     7 1   
     3     1    10 1   
     4     1    17 1   
     5     2     3 1   
     6     2     8 1   
     7     2    18 1   
     8     3     4 1   
     9     3    16 1   
    10     3    19 1   
    11     4     5 1   
    12     4     9 1   
    13     4    20 1   
    14     5     6 1   
    15     5    10 1   
    16     5    21 1   
    17     6    11 1   
    18     6    22 1   
    19     6    23 1   
    20     7    27 1   
    21     8    24 1   
    22     9    25 1   
    23    11    12 1   
    24    12    13 1   
    25    12    14 1   
    26    12    15 1   
    27    16    26 1   
@<TRIPOS>SUBSTRUCTURE
     1 G6S         1 TEMP              0 ****  ****    0 ROOT
