@<TRIPOS>MOLECULE
G6T
   50    53     1     0     0
SMALL
abcg2


@<TRIPOS>ATOM
      1 N1          -2.7120    -2.4360     0.0820 nb         1 G6T      -0.335000
      2 C2          -1.7740    -3.4100     0.1230 ca         1 G6T       0.398900
      3 N2          -2.2540    -4.6730     0.2280 nv         1 G6T      -1.048900
      4 N3          -0.4610    -3.2440     0.1050 nb         1 G6T      -0.218000
      5 C4          -0.0780    -1.9670     0.0470 ca         1 G6T       0.299000
      6 C5          -0.9650    -0.8950     0.0060 ca         1 G6T      -0.271200
      7 C6          -2.3290    -1.1840     0.0200 ca         1 G6T       0.428300
      8 O6          -3.2000    -0.1950    -0.0350 os         1 G6T      -0.468300
      9 N7          -0.1830     0.2290    -0.0510 na         1 G6T      -0.267600
     10 C8           1.0990    -0.1960    -0.0410 cc         1 G6T       0.485400
     11 N9           1.2000    -1.5080     0.0170 nd         1 G6T      -0.653700
     12 CAL         -4.5970    -0.5120    -0.0610 c3         1 G6T       0.176600
     13 CAM         -5.3810     0.7650    -0.2820 c6         1 G6T      -0.069700
     14 CAN         -6.8570     0.4120    -0.4680 c6         1 G6T      -0.070400
     15 CAO         -7.7090     1.6550    -0.7000 c6         1 G6T      -0.073400
     16 CAP         -7.5360     2.6660     0.4290 c6         1 G6T      -0.075400
     17 CAQ         -6.0660     3.0210     0.6270 c6         1 G6T      -0.073400
     18 CAR         -5.2140     1.7750     0.8550 c6         1 G6T      -0.070400
     19 CAS          2.2520     0.7000    -0.0880 ca         1 G6T      -0.136900
     20 CAT          2.1200     2.0870    -0.1670 ca         1 G6T      -0.049000
     21 CAU          3.2410     2.9000    -0.2180 ca         1 G6T      -0.134000
     22 CAV          4.5130     2.3460    -0.1940 ca         1 G6T      -0.005000
     23 CAW          4.6340     0.9670    -0.1100 ca         1 G6T      -0.271500
     24 CAX          3.5260     0.1400    -0.0590 ca         1 G6T       0.046000
     25 SAY          6.2450     0.2270    -0.0700 sy         1 G6T       1.126600
     26 OAZ          7.1920     1.2050    -0.5860 o          1 G6T      -0.539500
     27 NBA          6.4280    -0.0460     1.5480 n8         1 G6T      -1.002100
     28 OBB          6.1890    -1.0860    -0.6940 o          1 G6T      -0.539500
     29 HN2         -3.2190    -4.8270    -0.0060 hn         1 G6T       0.487500
     30 HN2A        -1.6250    -5.4280     0.0130 hn         1 G6T       0.487500
     31 HN7         -0.5120     1.1800    -0.0920 hn         1 G6T       0.366000
     32 HAL         -4.7930    -1.2260    -0.8650 h1         1 G6T       0.055200
     33 HALA        -4.8840    -0.9840     0.8840 h1         1 G6T       0.055200
     34 HAM         -5.0280     1.2260    -1.2140 hc         1 G6T       0.058700
     35 HAN         -6.9720    -0.2830    -1.3050 hc         1 G6T       0.042700
     36 HANA        -7.2190    -0.1130     0.4240 hc         1 G6T       0.042700
     37 HAO         -7.4200     2.1170    -1.6500 hc         1 G6T       0.040200
     38 HAOA        -8.7590     1.3710    -0.7990 hc         1 G6T       0.040200
     39 HAP         -8.1200     3.5670     0.2240 hc         1 G6T       0.040200
     40 HAPA        -7.9330     2.2410     1.3580 hc         1 G6T       0.040200
     41 HAQ         -5.6990     3.5530    -0.2570 hc         1 G6T       0.040200
     42 HAQA        -5.9520     3.7070     1.4690 hc         1 G6T       0.040200
     43 HAR         -5.5130     1.3010     1.7980 hc         1 G6T       0.042700
     44 HARA        -4.1650     2.0580     0.9660 hc         1 G6T       0.042700
     45 HAT          1.1450     2.5560    -0.1930 ha         1 G6T       0.108000
     46 HAU          3.1230     3.9720    -0.2800 ha         1 G6T       0.123000
     47 HAV          5.3830     2.9850    -0.2420 ha         1 G6T       0.139000
     48 HAX          3.6320    -0.9350     0.0010 ha         1 G6T       0.171000
     49 HNBA         7.1260    -0.7620     1.7280 hn         1 G6T       0.474000
     50 HNBB         6.6490     0.7990     2.0650 hn         1 G6T       0.474000
@<TRIPOS>BOND
     1     1     2 ar  
     2     1     7 ar  
     3     2     3 1   
     4     2     4 ar  
     5     3    29 1   
     6     3    30 1   
     7     4     5 ar  
     8     5     6 ar  
     9     5    11 1   
    10     6     7 ar  
    11     6     9 1   
    12     7     8 1   
    13     8    12 1   
    14     9    10 1   
    15     9    31 1   
    16    10    11 2   
    17    10    19 1   
    18    12    13 1   
    19    12    32 1   
    20    12    33 1   
    21    13    14 1   
    22    13    18 1   
    23    13    34 1   
    24    14    15 1   
    25    14    35 1   
    26    14    36 1   
    27    15    16 1   
    28    15    37 1   
    29    15    38 1   
    30    16    17 1   
    31    16    39 1   
    32    16    40 1   
    33    17    18 1   
    34    17    41 1   
    35    17    42 1   
    36    18    43 1   
    37    18    44 1   
    38    19    20 ar  
    39    19    24 ar  
    40    20    21 ar  
    41    20    45 1   
    42    21    22 ar  
    43    21    46 1   
    44    22    23 ar  
    45    22    47 1   
    46    23    24 ar  
    47    23    25 1   
    48    24    48 1   
    49    25    26 2   
    50    25    27 1   
    51    25    28 2   
    52    27    49 1   
    53    27    50 1   
@<TRIPOS>SUBSTRUCTURE
     1 G6T         1 TEMP              0 ****  ****    0 ROOT
