@<TRIPOS>MOLECULE
G6T
   50    53     1     0     0
SMALL
No Charge or Current Charge


@<TRIPOS>ATOM
      1 N1          -2.7930    -2.7240     0.0330 nb         1 G6T      -0.335000
      2 C2          -1.8360    -3.6600     0.1520 ca         1 G6T       0.398900
      3 N2          -2.2840    -4.9350     0.2500 nv         1 G6T      -1.048900
      4 N3          -0.5010    -3.4840     0.1810 nb         1 G6T      -0.218000
      5 C4          -0.0890    -2.2100     0.0790 ca         1 G6T       0.299000
      6 C5          -0.9870    -1.1910    -0.0440 ca         1 G6T      -0.271200
      7 C6          -2.3630    -1.4470    -0.0670 ca         1 G6T       0.428300
      8 O6          -3.2350    -0.3900    -0.1920 os         1 G6T      -0.468300
      9 N7          -0.2850    -0.0220    -0.1250 na         1 G6T      -0.267600
     10 C8           1.0610    -0.3620    -0.0490 cc         1 G6T       0.485400
     11 N9           1.2080    -1.6980     0.0770 nd         1 G6T      -0.653700
     12 CAL         -4.6590    -0.6060    -0.2080 c3         1 G6T       0.176600
     13 CAM         -5.3830     0.7640    -0.3450 c6         1 G6T      -0.069700
     14 CAN         -6.9160     0.5690    -0.5230 c6         1 G6T      -0.070400
     15 CAO         -7.6500     1.9250    -0.6710 c6         1 G6T      -0.073400
     16 CAP         -7.3540     2.8560     0.5290 c6         1 G6T      -0.075400
     17 CAQ         -5.8310     3.0620     0.7120 c6         1 G6T      -0.073400
     18 CAR         -5.0950     1.7070     0.8600 c6         1 G6T      -0.070400
     19 CAS          2.1650     0.6060    -0.0990 ca         1 G6T      -0.136900
     20 CAT          1.9200     1.9920    -0.2320 ca         1 G6T      -0.049000
     21 CAU          2.9870     2.9050    -0.2760 ca         1 G6T      -0.134000
     22 CAV          4.3130     2.4520    -0.1900 ca         1 G6T      -0.005000
     23 CAW          4.5730     1.0750    -0.0600 ca         1 G6T      -0.271500
     24 CAX          3.5030     0.1570    -0.0120 ca         1 G6T       0.046000
     25 SAY          6.2610     0.4820     0.0510 sy         1 G6T       1.126600
     26 OAZ          7.2020     1.4770    -0.4580 o          1 G6T      -0.539500
     27 NBA          6.5430     0.4750     1.6570 n8         1 G6T      -1.002100
     28 OBB          6.3430    -0.9300    -0.3180 o          1 G6T      -0.539500
     29 HN2         -3.2560    -5.1240     0.0210 hn         1 G6T       0.487500
     30 HN2A        -1.6230    -5.6990     0.1230 hn         1 G6T       0.487500
     31 HN7         -0.6600     0.9130    -0.2230 hn         1 G6T       0.366000
     32 HAL         -4.9400    -1.2440    -1.0560 h1         1 G6T       0.055200
     33 HALA        -4.9910    -1.0970     0.7170 h1         1 G6T       0.055200
     34 HAM         -4.9870     1.2300    -1.2590 hc         1 G6T       0.058700
     35 HAN         -7.1150    -0.0530    -1.4060 hc         1 G6T       0.042700
     36 HANA        -7.3250     0.0230     0.3400 hc         1 G6T       0.042700
     37 HAO         -7.3390     2.4130    -1.6050 hc         1 G6T       0.040200
     38 HAOA        -8.7320     1.7550    -0.7540 hc         1 G6T       0.040200
     39 HAP         -7.8460     3.8270     0.3780 hc         1 G6T       0.040200
     40 HAPA        -7.7830     2.4280     1.4450 hc         1 G6T       0.040200
     41 HAQ         -5.4250     3.6100    -0.1490 hc         1 G6T       0.040200
     42 HAQA        -5.6430     3.6860     1.5960 hc         1 G6T       0.040200
     43 HAR         -5.4050     1.2210     1.7960 hc         1 G6T       0.042700
     44 HARA        -4.0150     1.8910     0.9490 hc         1 G6T       0.042700
     45 HAT          0.9050     2.3760    -0.3010 ha         1 G6T       0.108000
     46 HAU          2.7850     3.9690    -0.3770 ha         1 G6T       0.123000
     47 HAV          5.1290     3.1730    -0.2240 ha         1 G6T       0.139000
     48 HAX          3.7110    -0.9070     0.0930 ha         1 G6T       0.171000
     49 HNBA         6.9200    -0.4630     1.7750 hn         1 G6T       0.474000
     50 HNBB         7.3840     1.0470     1.6990 hn         1 G6T       0.474000
@<TRIPOS>BOND
     1     1     2 ar  
     2     1     7 ar  
     3     2     3 1   
     4     2     4 ar  
     5     3    29 1   
     6     3    30 1   
     7     4     5 ar  
     8     5     6 ar  
     9     5    11 1   
    10     6     7 ar  
    11     6     9 1   
    12     7     8 1   
    13     8    12 1   
    14     9    10 1   
    15     9    31 1   
    16    10    11 2   
    17    10    19 1   
    18    12    13 1   
    19    12    32 1   
    20    12    33 1   
    21    13    14 1   
    22    13    18 1   
    23    13    34 1   
    24    14    15 1   
    25    14    35 1   
    26    14    36 1   
    27    15    16 1   
    28    15    37 1   
    29    15    38 1   
    30    16    17 1   
    31    16    39 1   
    32    16    40 1   
    33    17    18 1   
    34    17    41 1   
    35    17    42 1   
    36    18    43 1   
    37    18    44 1   
    38    19    20 ar  
    39    19    24 ar  
    40    20    21 ar  
    41    20    45 1   
    42    21    22 ar  
    43    21    46 1   
    44    22    23 ar  
    45    22    47 1   
    46    23    24 ar  
    47    23    25 1   
    48    24    48 1   
    49    25    26 2   
    50    25    27 1   
    51    25    28 2   
    52    27    49 1   
    53    27    50 1   
@<TRIPOS>SUBSTRUCTURE
     1 G6T         1 TEMP              0 ****  ****    0 ROOT
