@<TRIPOS>MOLECULE
G6U
   44    44     1     0     0
SMALL
abcg2


@<TRIPOS>ATOM
      1 O11        -20.8410   -21.6990   -28.6440 o          1 G6U      -0.513000
      2 S10        -22.1660   -20.9910   -28.6410 sx         1 G6U       0.302800
      3 C12        -21.8840   -19.3480   -27.9550 ca         1 G6U      -0.076500
      4 C13        -22.8850   -18.3980   -28.0140 ca         1 G6U       0.026000
      5 C17        -20.6340   -19.0580   -27.4350 ca         1 G6U       0.026000
      6 C16        -20.4010   -17.7880   -26.9390 ca         1 G6U      -0.217300
      7 C18        -19.0660   -17.4130   -26.3680 c3         1 G6U       0.360800
      8 F19        -19.1650   -17.1060   -25.0690 f          1 G6U      -0.109167
      9 F20        -18.5550   -16.3410   -26.9830 f          1 G6U      -0.109167
     10 F21        -18.1700   -18.3950   -26.4790 f          1 G6U      -0.109167
     11 C15        -21.4030   -16.8230   -26.9570 ca         1 G6U       0.010000
     12 C14        -22.6410   -17.1320   -27.4940 ca         1 G6U      -0.217300
     13 C22        -23.7420   -16.1140   -27.5190 c3         1 G6U       0.360800
     14 F24        -23.3200   -14.8970   -27.1750 f          1 G6U      -0.109167
     15 F23        -24.2930   -16.0170   -28.7350 f          1 G6U      -0.109167
     16 F25        -24.7250   -16.4430   -26.6740 f          1 G6U      -0.109167
     17 C09        -23.1120   -21.6030   -27.2590 ce         1 G6U      -0.225300
     18 C08        -22.7720   -22.7110   -26.6170 c2         1 G6U      -0.080200
     19 C07        -23.5900   -23.2720   -25.4910 c3         1 G6U       0.179000
     20 N06        -24.1370   -24.5770   -25.8230 n7         1 G6U      -0.865400
     21 C05        -23.2320   -25.6860   -25.5790 c3         1 G6U       0.157800
     22 C04        -23.9320   -27.0090   -25.8570 c3         1 G6U      -0.078400
     23 C02        -23.0570   -28.2520   -25.6950 c3         1 G6U      -0.058700
     24 C01        -23.8220   -29.4930   -26.1460 c3         1 G6U      -0.087600
     25 C03        -22.5540   -28.4330   -24.2660 c3         1 G6U      -0.087600
     26 H2         -23.8470   -18.6430   -28.4520 ha         1 G6U       0.149000
     27 H3         -19.8680   -19.8220   -27.4310 ha         1 G6U       0.149000
     28 H4         -21.2110   -15.8350   -26.5610 ha         1 G6U       0.146000
     29 H5         -24.0140   -21.0380   -27.0460 h4         1 G6U       0.202000
     30 H6         -21.8720   -23.2470   -26.9040 ha         1 G6U       0.198000
     31 H7         -22.9630   -23.2970   -24.5850 h1         1 G6U       0.041700
     32 H8         -24.4180   -22.5950   -25.2770 h1         1 G6U       0.041700
     33 H9         -24.9750   -24.7170   -25.2730 hn         1 G6U       0.413000
     34 H11        -22.3660   -25.5960   -26.2430 h1         1 G6U       0.032200
     35 H12        -22.8340   -25.6690   -24.5530 h1         1 G6U       0.032200
     36 H13        -24.8050   -27.0980   -25.1980 hc         1 G6U       0.044700
     37 H14        -24.3230   -26.9800   -26.8790 hc         1 G6U       0.044700
     38 H15        -22.1850   -28.1370   -26.3510 hc         1 G6U       0.047700
     39 H16        -23.2000   -30.3870   -26.0810 hc         1 G6U       0.032867
     40 H17        -24.7020   -29.6570   -25.5200 hc         1 G6U       0.032867
     41 H18        -24.1620   -29.4010   -27.1790 hc         1 G6U       0.032867
     42 H19        -21.9390   -29.3320   -24.1820 hc         1 G6U       0.032867
     43 H20        -21.9480   -27.5930   -23.9280 hc         1 G6U       0.032867
     44 H21        -23.3890   -28.5430   -23.5700 hc         1 G6U       0.032867
@<TRIPOS>BOND
     1     1     2 2   
     2     2     3 1   
     3     2    17 1   
     4     3     4 ar  
     5     3     5 ar  
     6     4    12 ar  
     7     4    26 1   
     8     5     6 ar  
     9     5    27 1   
    10     6     7 1   
    11     6    11 ar  
    12     7     8 1   
    13     7     9 1   
    14     7    10 1   
    15    11    12 ar  
    16    11    28 1   
    17    12    13 1   
    18    13    14 1   
    19    13    15 1   
    20    13    16 1   
    21    17    18 2   
    22    17    29 1   
    23    18    19 1   
    24    18    30 1   
    25    19    20 1   
    26    19    31 1   
    27    19    32 1   
    28    20    21 1   
    29    20    33 1   
    30    21    22 1   
    31    21    34 1   
    32    21    35 1   
    33    22    23 1   
    34    22    36 1   
    35    22    37 1   
    36    23    24 1   
    37    23    25 1   
    38    23    38 1   
    39    24    39 1   
    40    24    40 1   
    41    24    41 1   
    42    25    42 1   
    43    25    43 1   
    44    25    44 1   
@<TRIPOS>SUBSTRUCTURE
     1 G6U         1 TEMP              0 ****  ****    0 ROOT
