@<TRIPOS>MOLECULE
G6U
   44    44     1     0     0
SMALL
No Charge or Current Charge


@<TRIPOS>ATOM
      1 O11        -19.4110   -21.8610   -28.0860 o          1 G6U      -0.513000
      2 S10        -20.9010   -21.6700   -28.3140 sx         1 G6U       0.302800
      3 C12        -21.2620   -19.8840   -28.1300 ca         1 G6U      -0.076500
      4 C13        -22.5570   -19.4440   -28.4640 ca         1 G6U       0.026000
      5 C17        -20.5820   -19.1740   -27.1210 ca         1 G6U       0.026000
      6 C16        -21.0320   -17.9120   -26.6780 ca         1 G6U      -0.217300
      7 C18        -20.2310   -17.1290   -25.6350 c3         1 G6U       0.360800
      8 F19        -20.6050   -17.4610   -24.3790 f          1 G6U      -0.109167
      9 F20        -20.3980   -15.7920   -25.7560 f          1 G6U      -0.109167
     10 F21        -18.9020   -17.3610   -25.7270 f          1 G6U      -0.109167
     11 C15        -22.2580   -17.4140   -27.1600 ca         1 G6U       0.010000
     12 C14        -23.0390   -18.1860   -28.0430 ca         1 G6U      -0.217300
     13 C22        -24.4210   -17.6970   -28.4860 c3         1 G6U       0.360800
     14 F24        -24.4900   -16.3480   -28.5590 f          1 G6U      -0.109167
     15 F23        -24.7660   -18.1670   -29.7060 f          1 G6U      -0.109167
     16 F25        -25.3810   -18.0960   -27.6230 f          1 G6U      -0.109167
     17 C09        -21.7600   -22.1480   -26.7790 ce         1 G6U      -0.225300
     18 C08        -21.0980   -22.7380   -25.7580 c2         1 G6U      -0.080200
     19 C07        -21.7130   -23.1810   -24.4450 c3         1 G6U       0.179000
     20 N06        -22.9120   -24.0180   -24.6710 n7         1 G6U      -0.865400
     21 C05        -22.6760   -25.3050   -25.3540 c3         1 G6U       0.157800
     22 C04        -24.0090   -26.0700   -25.5180 c3         1 G6U      -0.078400
     23 C02        -23.8970   -27.3920   -26.3260 c3         1 G6U      -0.058700
     24 C01        -25.2930   -28.0030   -26.5840 c3         1 G6U      -0.087600
     25 C03        -22.9610   -28.4280   -25.6560 c3         1 G6U      -0.087600
     26 H2         -23.1830   -20.0840   -29.0840 ha         1 G6U       0.149000
     27 H3         -19.6780   -19.6050   -26.6960 ha         1 G6U       0.149000
     28 H4         -22.6310   -16.4550   -26.8050 ha         1 G6U       0.146000
     29 H5         -22.8340   -21.9420   -26.7720 h4         1 G6U       0.202000
     30 H6         -20.0270   -22.9320   -25.8230 ha         1 G6U       0.198000
     31 H7         -20.9650   -23.7330   -23.8580 h1         1 G6U       0.041700
     32 H8         -21.9840   -22.2880   -23.8660 h1         1 G6U       0.041700
     33 H9         -23.3290   -24.2220   -23.7550 hn         1 G6U       0.413000
     34 H11        -22.2390   -25.1410   -26.3480 h1         1 G6U       0.032200
     35 H12        -21.9730   -25.9170   -24.7730 h1         1 G6U       0.032200
     36 H13        -24.4270   -26.2850   -24.5270 hc         1 G6U       0.044700
     37 H14        -24.7240   -25.4100   -26.0260 hc         1 G6U       0.044700
     38 H15        -23.4670   -27.1470   -27.3050 hc         1 G6U       0.047700
     39 H16        -25.2130   -28.9060   -27.2020 hc         1 G6U       0.032867
     40 H17        -25.7820   -28.2750   -25.6410 hc         1 G6U       0.032867
     41 H18        -25.9370   -27.2900   -27.1130 hc         1 G6U       0.032867
     42 H19        -22.9360   -29.3570   -26.2370 hc         1 G6U       0.032867
     43 H20        -21.9330   -28.0520   -25.5920 hc         1 G6U       0.032867
     44 H21        -23.3050   -28.6670   -24.6430 hc         1 G6U       0.032867
@<TRIPOS>BOND
     1     1     2 2   
     2     2     3 1   
     3     2    17 1   
     4     3     4 ar  
     5     3     5 ar  
     6     4    12 ar  
     7     4    26 1   
     8     5     6 ar  
     9     5    27 1   
    10     6     7 1   
    11     6    11 ar  
    12     7     8 1   
    13     7     9 1   
    14     7    10 1   
    15    11    12 ar  
    16    11    28 1   
    17    12    13 1   
    18    13    14 1   
    19    13    15 1   
    20    13    16 1   
    21    17    18 2   
    22    17    29 1   
    23    18    19 1   
    24    18    30 1   
    25    19    20 1   
    26    19    31 1   
    27    19    32 1   
    28    20    21 1   
    29    20    33 1   
    30    21    22 1   
    31    21    34 1   
    32    21    35 1   
    33    22    23 1   
    34    22    36 1   
    35    22    37 1   
    36    23    24 1   
    37    23    25 1   
    38    23    38 1   
    39    24    39 1   
    40    24    40 1   
    41    24    41 1   
    42    25    42 1   
    43    25    43 1   
    44    25    44 1   
@<TRIPOS>SUBSTRUCTURE
     1 G6U         1 TEMP              0 ****  ****    0 ROOT
