@<TRIPOS>MOLECULE
G6V
   44    46     1     0     0
SMALL
No Charge or Current Charge


@<TRIPOS>ATOM
      1 C4           1.4990     0.0110     0.4200 ca         1 G6V       0.007000
      2 C3           2.1900     0.5840    -0.6670 ca         1 G6V      -0.167000
      3 C2           3.5810     0.4350    -0.7980 ca         1 G6V       0.192000
      4 C1           4.3380    -0.2530     0.1850 ca         1 G6V       0.202000
      5 C16          7.8180    -0.8120    -1.3400 c6         1 G6V       0.151600
      6 C5           2.2590    -0.6110     1.4310 ca         1 G6V      -0.164000
      7 C18          8.1110    -0.0580     0.9280 c6         1 G6V       0.151600
      8 C6           3.6520    -0.7610     1.3070 ca         1 G6V      -0.105000
      9 C9          -0.7550    -0.6500     1.4030 c5         1 G6V       0.069000
     10 C19          6.6330    -0.3980     1.2860 c6         1 G6V       0.146800
     11 C10         -2.1570    -0.0840     1.0430 c5         1 G6V       0.136300
     12 C12         -0.6050     1.4190     0.2510 c          1 G6V       0.708100
     13 C20         -2.8530    -0.8610    -0.1070 c3         1 G6V       0.099000
     14 C15          6.3280    -1.1840    -1.0770 c6         1 G6V       0.146800
     15 C30         -5.2890    -0.2440     0.1810 c          1 G6V       0.598100
     16 C31         -6.4850     0.4850    -0.4870 c3         1 G6V       0.208300
     17 F7           4.1880     0.9920    -1.8750 f          1 G6V      -0.167000
     18 N14          5.7500    -0.4170     0.0740 nh         1 G6V      -0.758400
     19 N29         -4.1220    -0.2700    -0.5610 ns         1 G6V      -0.498900
     20 N8           0.1010     0.2770     0.6530 n          1 G6V      -0.249400
     21 O11         -1.9130     1.2770     0.6110 os         1 G6V      -0.417100
     22 O17          8.5970    -0.9240    -0.1250 os         1 G6V      -0.448000
     23 O32         -5.3510    -0.7780     1.2830 o          1 G6V      -0.556100
     24 Cl33        -7.9460     0.6300     0.6010 cl         1 G6V      -0.200500
     25 Cl44        -6.0380     2.1560    -1.0710 cl         1 G6V      -0.200500
     26 H3           1.6580     1.1240    -1.4440 ha         1 G6V       0.168000
     27 H16          8.2410    -1.4800    -2.1030 h1         1 G6V       0.054950
     28 H161         7.8840     0.2190    -1.7170 h1         1 G6V       0.054950
     29 H5           1.7750    -0.9930     2.3260 ha         1 G6V       0.115000
     30 H181         8.1830     0.9880     0.5970 h1         1 G6V       0.054950
     31 H18          8.7470    -0.1770     1.8170 h1         1 G6V       0.054950
     32 H6           4.1970    -1.2770     2.0920 ha         1 G6V       0.120000
     33 H91         -0.5630    -0.5820     2.4820 h1         1 G6V       0.070700
     34 H9          -0.6220    -1.6920     1.0830 h1         1 G6V       0.070700
     35 H191         6.6080    -1.3780     1.7850 h1         1 G6V       0.046700
     36 H19          6.2700     0.3480     2.0090 h1         1 G6V       0.046700
     37 H10         -2.8220    -0.0750     1.9170 h1         1 G6V       0.086700
     38 H201        -2.1700    -0.9170    -0.9650 h1         1 G6V       0.068200
     39 H20         -3.0450    -1.8900     0.2270 h1         1 G6V       0.068200
     40 H15          5.7570    -0.9980    -1.9970 h1         1 G6V       0.046700
     41 H151         6.2650    -2.2630    -0.8720 h1         1 G6V       0.046700
     42 H311        -6.7990    -0.0890    -1.3640 h2         1 G6V       0.109700
     43 HN29        -4.1380     0.2110    -1.4550 hn         1 G6V       0.339500
     44 O13         -0.1490     2.4090    -0.3010 o          1 G6V      -0.507000
@<TRIPOS>BOND
     1     1     2 ar  
     2     1     6 ar  
     3     1    20 1   
     4     2     3 ar  
     5     2    26 1   
     6     3     4 ar  
     7     3    17 1   
     8     4     8 ar  
     9     4    18 1   
    10     5    14 1   
    11     5    22 1   
    12     5    27 1   
    13     5    28 1   
    14     6     8 ar  
    15     6    29 1   
    16     7    10 1   
    17     7    22 1   
    18     7    30 1   
    19     7    31 1   
    20     8    32 1   
    21     9    11 1   
    22     9    20 1   
    23     9    33 1   
    24     9    34 1   
    25    10    18 1   
    26    10    35 1   
    27    10    36 1   
    28    11    13 1   
    29    11    21 1   
    30    11    37 1   
    31    12    20 1   
    32    12    21 1   
    33    12    44 2   
    34    13    19 1   
    35    13    38 1   
    36    13    39 1   
    37    14    18 1   
    38    14    40 1   
    39    14    41 1   
    40    15    16 1   
    41    15    19 1   
    42    15    23 2   
    43    16    24 1   
    44    16    25 1   
    45    16    42 1   
    46    19    43 1   
@<TRIPOS>SUBSTRUCTURE
     1 G6V         1 TEMP              0 ****  ****    0 ROOT
