@<TRIPOS>MOLECULE
G6V
   44    46     1     0     0
SMALL
bcc


@<TRIPOS>ATOM
      1 C4           1.6360     0.4630     0.2210 ca         1 G6V       0.099600
      2 C3           2.4390     1.0340    -0.7710 ca         1 G6V      -0.185000
      3 C2           3.7890     0.7660    -0.7790 ca         1 G6V       0.156900
      4 C1           4.4260    -0.0710     0.1360 ca         1 G6V       0.063600
      5 C16          7.7540    -1.0420    -1.1920 c6         1 G6V       0.128400
      6 C5           2.2420    -0.3630     1.1650 ca         1 G6V      -0.182000
      7 C18          7.9770    -0.6170     1.0800 c6         1 G6V       0.128400
      8 C6           3.6030    -0.6250     1.1110 ca         1 G6V      -0.123000
      9 C9          -0.5750    -0.0410     1.2390 c5         1 G6V       0.069000
     10 C19          6.4740    -0.6830     1.2790 c6         1 G6V       0.146800
     11 C10         -1.9720     0.5010     0.9230 c5         1 G6V       0.113100
     12 C12         -0.4870     1.4920    -0.5080 c          1 G6V       0.850600
     13 C20         -2.9340    -0.5960     0.5300 c3         1 G6V       0.099000
     14 C15          6.2450    -1.1130    -1.0650 c6         1 G6V       0.146800
     15 C30         -5.2680    -0.8630    -0.0670 c          1 G6V       0.665100
     16 C31         -6.5640    -0.1250    -0.4430 c3         1 G6V       0.055100
     17 F7           4.5310     1.3550    -1.7310 f          1 G6V      -0.131900
     18 N14          5.8100    -0.2800     0.0520 nh         1 G6V      -0.620000
     19 N29         -4.2460    -0.0580     0.2390 ns         1 G6V      -0.565900
     20 N8           0.2560     0.6840     0.2990 n          1 G6V      -0.409000
     21 O11         -1.7770     1.4030    -0.1680 os         1 G6V      -0.393900
     22 O17          8.3950    -1.4260     0.0040 os         1 G6V      -0.401600
     23 O32         -5.1980    -2.0730    -0.1030 o          1 G6V      -0.556100
     24 CL33        -7.8850    -1.2670    -0.6540 cl         1 G6V      -0.123900
     25 CL44        -6.9890     1.0830     0.7950 cl         1 G6V      -0.123900
     26 H3           2.0380     1.6940    -1.5230 ha         1 G6V       0.186000
     27 H16          8.0920    -1.7190    -1.9780 h1         1 G6V       0.054950
     28 H161         8.0450    -0.0210    -1.4740 h1         1 G6V       0.054950
     29 H5           1.6700    -0.8260     1.9560 ha         1 G6V       0.133000
     30 H181         8.2770     0.4280     0.9170 h1         1 G6V       0.054950
     31 H18          8.4840    -0.9770     1.9770 h1         1 G6V       0.054950
     32 H6           4.0250    -1.2800     1.8620 ha         1 G6V       0.138000
     33 H91         -0.2920     0.1640     2.2720 h1         1 G6V       0.070700
     34 H9          -0.5000    -1.1180     1.0710 h1         1 G6V       0.070700
     35 H191         6.1950    -1.7020     1.5920 h1         1 G6V       0.046700
     36 H19          6.1960    -0.0030     2.0870 h1         1 G6V       0.046700
     37 H10         -2.3730     1.0760     1.7610 h1         1 G6V       0.086700
     38 H201        -2.5390    -1.1400    -0.3320 h1         1 G6V       0.068200
     39 H20         -2.9950    -1.3020     1.3620 h1         1 G6V       0.068200
     40 H15          5.8010    -0.7650    -1.9970 h1         1 G6V       0.046700
     41 H151         5.9300    -2.1580    -0.9240 h1         1 G6V       0.046700
     42 H311        -6.4290     0.4120    -1.3810 h2         1 G6V       0.109700
     43 HN29        -4.3750     0.9420     0.2300 hn         1 G6V       0.339500
     44 O13         -0.1210     2.2090    -1.4040 o          1 G6V      -0.582500
@<TRIPOS>BOND
     1     1     2 ar  
     2     1     6 ar  
     3     1    20 1   
     4     2     3 ar  
     5     2    26 1   
     6     3     4 ar  
     7     3    17 1   
     8     4     8 ar  
     9     4    18 1   
    10     5    14 1   
    11     5    22 1   
    12     5    27 1   
    13     5    28 1   
    14     6     8 ar  
    15     6    29 1   
    16     7    10 1   
    17     7    22 1   
    18     7    30 1   
    19     7    31 1   
    20     8    32 1   
    21     9    11 1   
    22     9    20 1   
    23     9    33 1   
    24     9    34 1   
    25    10    18 1   
    26    10    35 1   
    27    10    36 1   
    28    11    13 1   
    29    11    21 1   
    30    11    37 1   
    31    12    20 1   
    32    12    21 1   
    33    12    44 2   
    34    13    19 1   
    35    13    38 1   
    36    13    39 1   
    37    14    18 1   
    38    14    40 1   
    39    14    41 1   
    40    15    16 1   
    41    15    19 1   
    42    15    23 2   
    43    16    24 1   
    44    16    25 1   
    45    16    42 1   
    46    19    43 1   
@<TRIPOS>SUBSTRUCTURE
     1 G6V         1 TEMP              0 ****  ****    0 ROOT
