@<TRIPOS>MOLECULE
G6W
   39    40     1     0     0
SMALL
abcg2


@<TRIPOS>ATOM
      1 CAA         -0.2420     3.7700    -0.6730 c3         1 G6W      -0.182100
      2 CAB          5.3340    -0.8920    -1.4580 c3         1 G6W      -0.102600
      3 CAC          6.0320     0.2340     0.6760 c3         1 G6W      -0.102600
      4 CAO         -1.1700     2.6000    -0.5090 c          1 G6W       0.502600
      5 CAP          3.6570     0.2990    -0.1090 c          1 G6W       0.608100
      6 CAR         -2.6330    -0.1510     0.2680 ca         1 G6W      -0.026000
      7 CAS          1.2260     0.0100     0.0290 cc         1 G6W       0.591300
      8 CAT         -0.5380     1.2980    -0.1830 cd         1 G6W       0.235500
      9 CAU         -1.2070     0.1400     0.1020 cc         1 G6W      -0.126000
     10 CAV          4.9290    -0.5630    -0.0180 c3         1 G6W       0.095200
     11 NAE          4.6100    -1.8090     0.6710 n8         1 G6W      -1.031200
     12 NAL          0.8280     1.2090    -0.2150 nd         1 G6W      -0.658000
     13 OAF         -2.3710     2.6970    -0.6430 o          1 G6W      -0.516100
     14 OAG          3.6810     1.4820    -0.3580 o          1 G6W      -0.530100
     15 SAN         -0.0590    -1.1260     0.3320 ss         1 G6W      -0.074400
     16 H1           0.4700     3.5860    -1.4770 hc         1 G6W       0.068033
     17 H2          -0.8070     4.6730    -0.8890 hc         1 G6W       0.068033
     18 H3           0.3470     3.9180     0.2330 hc         1 G6W       0.068033
     19 H4           5.5120     0.0160    -2.0320 hc         1 G6W       0.050700
     20 H5           6.2570    -1.4750    -1.4570 hc         1 G6W       0.050700
     21 H6           4.5640    -1.4770    -1.9640 hc         1 G6W       0.050700
     22 H7           5.7440     0.5040     1.6940 hc         1 G6W       0.050700
     23 H8           6.9350    -0.3750     0.7330 hc         1 G6W       0.050700
     24 H9           6.2790     1.1490     0.1400 hc         1 G6W       0.050700
     25 H13          5.2740    -2.5320     0.4210 hn         1 G6W       0.414500
     26 H14          4.6800    -1.6920     1.6750 hn         1 G6W       0.414500
     27 H16          2.7170    -1.4080     0.3080 hn         1 G6W       0.369500
     28 C1          -3.3810     0.5070     1.2430 ca         1 G6W       0.335900
     29 C2          -3.2530    -1.1270    -0.4990 ca         1 G6W      -0.133000
     30 N1          -4.6620     0.2470     1.4420 nb         1 G6W      -0.637000
     31 C4          -4.6040    -1.4130    -0.2920 ca         1 G6W       0.243000
     32 C5          -5.2590    -0.6740     0.7020 ca         1 G6W       0.283900
     33 N2          -5.2510    -2.4010    -0.9890 nv         1 G6W      -1.074000
     34 H10         -2.9210     1.2560     1.8760 h4         1 G6W       0.028100
     35 H11         -2.6970    -1.6560    -1.2650 ha         1 G6W       0.121000
     36 H12         -6.3120    -0.8540     0.8970 h4         1 G6W       0.017100
     37 H15         -4.8540    -2.6520    -1.8800 hn         1 G6W       0.454000
     38 H17         -6.2560    -2.3360    -1.0240 hn         1 G6W       0.454000
     39 NAM          2.5170    -0.4350     0.0760 ns         1 G6W      -0.484400
@<TRIPOS>BOND
     1     1     4 1   
     2     1    16 1   
     3     1    17 1   
     4     1    18 1   
     5     2    10 1   
     6     2    19 1   
     7     2    20 1   
     8     2    21 1   
     9     3    10 1   
    10     3    22 1   
    11     3    23 1   
    12     3    24 1   
    13     4     8 1   
    14     4    13 2   
    15     5    10 1   
    16     5    14 2   
    17     5    39 1   
    18     6     9 1   
    19     6    28 ar  
    20     6    29 ar  
    21     7    12 2   
    22     7    15 1   
    23     7    39 1   
    24     8     9 2   
    25     8    12 1   
    26     9    15 1   
    27    10    11 1   
    28    11    25 1   
    29    11    26 1   
    30    27    39 1   
    31    28    30 ar  
    32    28    34 1   
    33    29    31 ar  
    34    29    35 1   
    35    30    32 ar  
    36    31    32 ar  
    37    31    33 1   
    38    32    36 1   
    39    33    37 1   
    40    33    38 1   
@<TRIPOS>SUBSTRUCTURE
     1 G6W         1 TEMP              0 ****  ****    0 ROOT
