@<TRIPOS>MOLECULE
G6W
   39    40     1     0     0
SMALL
No Charge or Current Charge


@<TRIPOS>ATOM
      1 CAA         -0.5530     3.6940    -0.9800 c3         1 G6W      -0.182100
      2 CAB          5.6800    -0.7570    -1.4460 c3         1 G6W      -0.102600
      3 CAC          5.9590     0.1470     0.9120 c3         1 G6W      -0.102600
      4 CAO         -1.3590     2.4630    -0.5520 c          1 G6W       0.502600
      5 CAP          3.6790     0.2670    -0.2360 c          1 G6W       0.608100
      6 CAR         -2.5970    -0.1690     0.3880 ca         1 G6W      -0.026000
      7 CAS          1.2340    -0.1040     0.0430 cc         1 G6W       0.591300
      8 CAT         -0.5750     1.2110    -0.2110 cd         1 G6W       0.235500
      9 CAU         -1.1600     0.0180     0.2040 cc         1 G6W      -0.126000
     10 CAV          5.0050    -0.5810    -0.0660 c3         1 G6W       0.095200
     11 NAE          4.7710    -1.9540     0.4950 n8         1 G6W      -1.031200
     12 NAL          0.8210     1.1100    -0.2830 nd         1 G6W      -0.658000
     13 OAF         -2.5830     2.5470    -0.5130 o          1 G6W      -0.516100
     14 OAG          3.6740     1.4450    -0.5720 o          1 G6W      -0.530100
     15 SAN         -0.0060    -1.2520     0.4580 ss         1 G6W      -0.074400
     16 H1           0.0850     3.4240    -1.8290 hc         1 G6W       0.068033
     17 H2          -1.1860     4.5590    -1.2090 hc         1 G6W       0.068033
     18 H3           0.1830     3.9250    -0.2020 hc         1 G6W       0.068033
     19 H4           5.9220     0.2170    -1.8880 hc         1 G6W       0.050700
     20 H5           6.6120    -1.3290    -1.3630 hc         1 G6W       0.050700
     21 H6           5.0140    -1.2850    -2.1400 hc         1 G6W       0.050700
     22 H7           5.4820     0.2920     1.8900 hc         1 G6W       0.050700
     23 H8           6.8850    -0.4220     1.0620 hc         1 G6W       0.050700
     24 H9           6.2330     1.1360     0.5250 hc         1 G6W       0.050700
     25 H13          5.5310    -2.5760     0.1890 hn         1 G6W       0.414500
     26 H14          4.9000    -1.9320     1.5160 hn         1 G6W       0.414500
     27 H16          2.7840    -1.4150     0.3110 hn         1 G6W       0.369500
     28 C1          -3.2760     0.4120     1.4850 ca         1 G6W       0.335900
     29 C2          -3.3230    -0.9770    -0.5080 ca         1 G6W      -0.133000
     30 N1          -4.6000     0.2420     1.7160 nb         1 G6W      -0.637000
     31 C4          -4.6990    -1.1650    -0.2950 ca         1 G6W       0.243000
     32 C5          -5.2900    -0.5290     0.8360 ca         1 G6W       0.283900
     33 N2          -5.4210    -1.9540    -1.1770 nv         1 G6W      -1.074000
     34 H10         -2.7370     1.0280     2.2040 h4         1 G6W       0.028100
     35 H11         -2.8240    -1.4450    -1.3520 ha         1 G6W       0.121000
     36 H12         -6.3530    -0.6480     1.0410 h4         1 G6W       0.017100
     37 H15         -4.9490    -2.4630    -1.9240 hn         1 G6W       0.454000
     38 H17         -6.4020    -2.1750    -0.9980 hn         1 G6W       0.454000
     39 NAM          2.5550    -0.4620     0.0540 ns         1 G6W      -0.484400
@<TRIPOS>BOND
     1     1     4 1   
     2     1    16 1   
     3     1    17 1   
     4     1    18 1   
     5     2    10 1   
     6     2    19 1   
     7     2    20 1   
     8     2    21 1   
     9     3    10 1   
    10     3    22 1   
    11     3    23 1   
    12     3    24 1   
    13     4     8 1   
    14     4    13 2   
    15     5    10 1   
    16     5    14 2   
    17     5    39 1   
    18     6     9 1   
    19     6    28 ar  
    20     6    29 ar  
    21     7    12 2   
    22     7    15 1   
    23     7    39 1   
    24     8     9 2   
    25     8    12 1   
    26     9    15 1   
    27    10    11 1   
    28    11    25 1   
    29    11    26 1   
    30    27    39 1   
    31    28    30 ar  
    32    28    34 1   
    33    29    31 ar  
    34    29    35 1   
    35    30    32 ar  
    36    31    32 ar  
    37    31    33 1   
    38    32    36 1   
    39    33    37 1   
    40    33    38 1   
@<TRIPOS>SUBSTRUCTURE
     1 G6W         1 TEMP              0 ****  ****    0 ROOT
