@<TRIPOS>MOLECULE
G6X
   72    77     1     0     0
SMALL
No Charge or Current Charge


@<TRIPOS>ATOM
      1 C1          -4.7760    -1.6660    -0.6240 c2         1 G6X      -0.161200
      2 C2          -5.4170    -2.4280    -1.5350 c2         1 G6X      -0.272200
      3 C3          -6.9040    -2.7390    -1.5540 c6         1 G6X       0.216500
      4 C4          -7.6180    -2.3190    -0.2500 c6         1 G6X      -0.064400
      5 O5          -7.3350     0.1480    -0.5150 os         1 G6X      -0.293100
      6 C6          -6.4030     2.4230    -0.4330 ca         1 G6X       0.114100
      7 C7          -5.3460     3.2270     0.0520 ca         1 G6X      -0.164000
      8 C8          -4.2930     2.6440     0.7910 ca         1 G6X      -0.113000
      9 C9          -3.1190     0.6840     1.9050 c3         1 G6X       0.230100
     10 N10         -2.6770    -0.6920     1.5520 n3         1 G6X      -0.741600
     11 C11         -3.5230    -1.7610     2.1500 c3         1 G6X       0.184800
     12 C12         -5.0520    -1.6300     1.9390 c3         1 G6X      -0.054400
     13 C13         -6.3510     1.0410    -0.1730 ca         1 G6X       0.097100
     14 C14         -5.2910     0.4620     0.5000 ca         1 G6X      -0.119300
     15 C15         -4.2500     1.2530     1.0360 ca         1 G6X      -0.054300
     16 C16         -7.6000     4.3470    -1.4150 c3         1 G6X       0.146900
     17 O17         -7.4830     2.9440    -1.1240 os         1 G6X      -0.318100
     18 O18         -7.4830    -2.0820    -2.6790 oh         1 G6X      -0.640000
     19 C19         -1.2320    -0.9460     1.7790 c3         1 G6X       0.180800
     20 C20         -0.2830    -0.1730     0.8320 c3         1 G6X      -0.079400
     21 C21          1.1960    -0.5860     1.0000 c3         1 G6X      -0.075400
     22 C22          2.1490     0.1790     0.0550 c3         1 G6X      -0.071400
     23 C23          3.6270    -0.2360     0.2230 c3         1 G6X      -0.102400
     24 C24          4.5760     0.5270    -0.7220 c3         1 G6X       0.113000
     25 N25          5.9820     0.1130    -0.5740 n          1 G6X      -0.483200
     26 C26          6.6130    -0.8280    -1.3890 c          1 G6X       0.588600
     27 C27          8.0730    -0.9530    -1.0250 ca         1 G6X      -0.097600
     28 C28          9.0200    -1.8080    -1.6140 ca         1 G6X      -0.050000
     29 C29         10.3480    -1.7800    -1.1370 ca         1 G6X      -0.070000
     30 C30         10.7180    -0.9070    -0.0870 ca         1 G6X      -0.102000
     31 C31          9.7660    -0.0490     0.5000 ca         1 G6X       0.005000
     32 C32          8.4530    -0.0950     0.0090 ca         1 G6X      -0.258500
     33 S33          7.0500     0.8520     0.5400 sy         1 G6X       1.179300
     34 O34          6.0550    -1.4610    -2.2740 o          1 G6X      -0.482000
     35 O35          6.6780     0.4600     1.9050 o          1 G6X      -0.516000
     36 O36          7.2340     2.2610     0.1710 o          1 G6X      -0.516000
     37 C41         -7.0490    -1.0090     0.3370 c5         1 G6X       0.163300
     38 C42         -5.4890    -1.0260     0.5820 c5         1 G6X       0.015500
     39 H1          -3.7020    -1.5060    -0.7420 ha         1 G6X       0.199000
     40 H2          -4.8460    -2.8690    -2.3530 ha         1 G6X       0.170000
     41 H3          -7.0300    -3.8250    -1.6730 h1         1 G6X       0.026700
     42 H4          -8.7000    -2.2290    -0.4110 hc         1 G6X       0.060700
     43 H4A         -7.4850    -3.1150     0.4930 hc         1 G6X       0.060700
     44 H7          -5.3350     4.3010    -0.1100 ha         1 G6X       0.116000
     45 H8          -3.5060     3.2850     1.1840 ha         1 G6X       0.109000
     46 H9          -3.4360     0.7170     2.9560 h1         1 G6X       0.038700
     47 H9A         -2.2800     1.3850     1.8290 h1         1 G6X       0.038700
     48 H11         -3.2200    -2.7230     1.7150 h1         1 G6X       0.029700
     49 H11A        -3.3320    -1.8320     3.2300 h1         1 G6X       0.029700
     50 H12         -5.4930    -2.6260     2.0610 hc         1 G6X       0.046200
     51 H12A        -5.4640    -1.0200     2.7520 hc         1 G6X       0.046200
     52 H16         -8.5260     4.5440    -1.9700 h1         1 G6X       0.038033
     53 H16A        -7.6270     4.9360    -0.4890 h1         1 G6X       0.038033
     54 H16B        -6.7560     4.6900    -2.0270 h1         1 G6X       0.038033
     55 HO18        -6.8800    -2.2500    -3.4330 ho         1 G6X       0.437000
     56 H19         -0.9690    -0.7110     2.8200 h1         1 G6X       0.027700
     57 H19A        -1.0290    -2.0160     1.6330 h1         1 G6X       0.027700
     58 H20         -0.5920    -0.3560    -0.2040 hc         1 G6X       0.048700
     59 H20A        -0.3660     0.9050     1.0060 hc         1 G6X       0.048700
     60 H21          1.5020    -0.4110     2.0390 hc         1 G6X       0.039700
     61 H21A         1.2930    -1.6630     0.8150 hc         1 G6X       0.039700
     62 H22          1.8420     0.0040    -0.9840 hc         1 G6X       0.041700
     63 H22A         2.0530     1.2560     0.2400 hc         1 G6X       0.041700
     64 H23          3.9340    -0.0630     1.2620 hc         1 G6X       0.058200
     65 H23A         3.7250    -1.3120     0.0340 hc         1 G6X       0.058200
     66 H24          4.2600     0.3640    -1.7620 h1         1 G6X       0.065200
     67 H24A         4.4950     1.6040    -0.5240 h1         1 G6X       0.065200
     68 H28          8.7360    -2.4790    -2.4220 ha         1 G6X       0.142000
     69 H29         11.0930    -2.4360    -1.5810 ha         1 G6X       0.125000
     70 H30         11.7450    -0.8960     0.2700 ha         1 G6X       0.125000
     71 H31         10.0440     0.6250     1.3080 ha         1 G6X       0.135000
     72 H41         -7.5590    -0.8280     1.2930 h1         1 G6X       0.049700
@<TRIPOS>BOND
     1     1     2 2   
     2     1    38 1   
     3     1    39 1   
     4     2     3 1   
     5     2    40 1   
     6     3     4 1   
     7     3    18 1   
     8     3    41 1   
     9     4    37 1   
    10     4    42 1   
    11     4    43 1   
    12     5    13 1   
    13     5    37 1   
    14     6     7 ar  
    15     6    13 ar  
    16     6    17 1   
    17     7     8 ar  
    18     7    44 1   
    19     8    15 ar  
    20     8    45 1   
    21     9    10 1   
    22     9    15 1   
    23     9    46 1   
    24     9    47 1   
    25    10    11 1   
    26    10    19 1   
    27    11    12 1   
    28    11    48 1   
    29    11    49 1   
    30    12    38 1   
    31    12    50 1   
    32    12    51 1   
    33    13    14 ar  
    34    14    15 ar  
    35    14    38 1   
    36    16    17 1   
    37    16    52 1   
    38    16    53 1   
    39    16    54 1   
    40    18    55 1   
    41    19    20 1   
    42    19    56 1   
    43    19    57 1   
    44    20    21 1   
    45    20    58 1   
    46    20    59 1   
    47    21    22 1   
    48    21    60 1   
    49    21    61 1   
    50    22    23 1   
    51    22    62 1   
    52    22    63 1   
    53    23    24 1   
    54    23    64 1   
    55    23    65 1   
    56    24    25 1   
    57    24    66 1   
    58    24    67 1   
    59    25    26 1   
    60    25    33 1   
    61    26    27 1   
    62    26    34 2   
    63    27    28 ar  
    64    27    32 ar  
    65    28    29 ar  
    66    28    68 1   
    67    29    30 ar  
    68    29    69 1   
    69    30    31 ar  
    70    30    70 1   
    71    31    32 ar  
    72    31    71 1   
    73    32    33 1   
    74    33    35 2   
    75    33    36 2   
    76    37    38 1   
    77    37    72 1   
@<TRIPOS>SUBSTRUCTURE
     1 G6X         1 TEMP              0 ****  ****    0 ROOT
