@<TRIPOS>MOLECULE
G6X
   72    77     1     0     0
SMALL
abcg2


@<TRIPOS>ATOM
      1 C1          -4.6630    -1.6930    -0.5610 c2         1 G6X      -0.161200
      2 C2          -5.2720    -2.4080    -1.5010 c2         1 G6X      -0.272200
      3 C3          -6.7510    -2.6650    -1.5600 c6         1 G6X       0.216500
      4 C4          -7.4340    -2.2590    -0.2660 c6         1 G6X      -0.064400
      5 O5          -7.1250     0.1490    -0.4830 os         1 G6X      -0.293100
      6 C6          -6.2130     2.4050    -0.4360 ca         1 G6X       0.114100
      7 C7          -5.1630     3.1790     0.0550 ca         1 G6X      -0.164000
      8 C8          -4.1350     2.6090     0.8050 ca         1 G6X      -0.113000
      9 C9          -3.0330     0.6380     1.9570 c3         1 G6X       0.230100
     10 N10         -2.6490    -0.7030     1.5510 n3         1 G6X      -0.741600
     11 C11         -3.4600    -1.7580     2.1350 c3         1 G6X       0.184800
     12 C12         -4.9670    -1.5850     1.9480 c3         1 G6X      -0.054400
     13 C13         -6.1590     1.0400    -0.1660 ca         1 G6X       0.097100
     14 C14         -5.1040     0.4740     0.5220 ca         1 G6X      -0.119300
     15 C15         -4.0860     1.2420     1.0640 ca         1 G6X      -0.054300
     16 C16         -7.3510     4.2450    -1.3870 c3         1 G6X       0.146900
     17 O17         -7.2770     2.8590    -1.1290 os         1 G6X      -0.318100
     18 O18         -7.3510    -1.9700    -2.6410 oh         1 G6X      -0.640000
     19 C19         -1.2330    -0.9770     1.7250 c3         1 G6X       0.180800
     20 C20         -0.3390    -0.2310     0.7440 c3         1 G6X      -0.079400
     21 C21          1.1270    -0.6110     0.9160 c3         1 G6X      -0.075400
     22 C22          2.0560     0.1610    -0.0120 c3         1 G6X      -0.071400
     23 C23          3.5140    -0.2410     0.1590 c3         1 G6X      -0.102400
     24 C24          4.4280     0.5950    -0.7250 c3         1 G6X       0.113000
     25 N25          5.8310     0.2070    -0.6300 n          1 G6X      -0.483200
     26 C26          6.4070    -0.7930    -1.3750 c          1 G6X       0.588600
     27 C27          7.8330    -0.9290    -0.9950 ca         1 G6X      -0.097600
     28 C28          8.7510    -1.8140    -1.5260 ca         1 G6X      -0.050000
     29 C29         10.0500    -1.7870    -1.0310 ca         1 G6X      -0.070000
     30 C30         10.4180    -0.8940    -0.0290 ca         1 G6X      -0.102000
     31 C31          9.4970    -0.0010     0.5090 ca         1 G6X       0.005000
     32 C32          8.2170    -0.0490     0.0000 ca         1 G6X      -0.258500
     33 S33          6.8500     0.9390     0.4940 sy         1 G6X       1.179300
     34 O34          5.8250    -1.4420    -2.2100 o          1 G6X      -0.482000
     35 O35          6.4220     0.6210     1.8420 o          1 G6X      -0.516000
     36 O36          7.0290     2.3360     0.1520 o          1 G6X      -0.516000
     37 C41         -6.8840    -1.0000     0.3560 c5         1 G6X       0.163300
     38 C42         -5.3630    -1.0120     0.5880 c5         1 G6X       0.015500
     39 H1          -3.5900    -1.5480    -0.6040 ha         1 G6X       0.199000
     40 H2          -4.6770    -2.8360    -2.3030 ha         1 G6X       0.170000
     41 H3          -6.9040    -3.7450    -1.6910 h1         1 G6X       0.026700
     42 H4          -8.5130    -2.1760    -0.4170 hc         1 G6X       0.060700
     43 H4A         -7.2940    -3.0580     0.4670 hc         1 G6X       0.060700
     44 H7          -5.1440     4.2470    -0.1190 ha         1 G6X       0.116000
     45 H8          -3.3610     3.2570     1.1980 ha         1 G6X       0.109000
     46 H9          -3.3830     0.6580     3.0020 h1         1 G6X       0.038700
     47 H9A         -2.1570     1.2880     1.9410 h1         1 G6X       0.038700
     48 H11         -3.1540    -2.6930     1.6590 h1         1 G6X       0.029700
     49 H11A        -3.2640    -1.8810     3.2140 h1         1 G6X       0.029700
     50 H12         -5.4290    -2.5660     2.0950 hc         1 G6X       0.046200
     51 H12A        -5.3830    -0.9380     2.7250 hc         1 G6X       0.046200
     52 H16         -8.2740     4.4090    -1.9390 h1         1 G6X       0.038033
     53 H16A        -7.3840     4.8330    -0.4650 h1         1 G6X       0.038033
     54 H16B        -6.5110     4.5940    -1.9950 h1         1 G6X       0.038033
     55 HO18        -6.9760    -2.3110    -3.4590 ho         1 G6X       0.437000
     56 H19         -0.8990    -0.7760     2.7580 h1         1 G6X       0.027700
     57 H19A        -1.0850    -2.0490     1.5640 h1         1 G6X       0.027700
     58 H20         -0.6670    -0.4570    -0.2740 hc         1 G6X       0.048700
     59 H20A        -0.4420     0.8520     0.8710 hc         1 G6X       0.048700
     60 H21          1.4310    -0.4340     1.9540 hc         1 G6X       0.039700
     61 H21A         1.2480    -1.6850     0.7410 hc         1 G6X       0.039700
     62 H22          1.7510     0.0010    -1.0520 hc         1 G6X       0.041700
     63 H22A         1.9460     1.2340     0.1790 hc         1 G6X       0.041700
     64 H23          3.8110    -0.1210     1.2040 hc         1 G6X       0.058200
     65 H23A         3.6380    -1.2990    -0.0880 hc         1 G6X       0.058200
     66 H24          4.1430     0.5090    -1.7740 h1         1 G6X       0.065200
     67 H24A         4.3530     1.6540    -0.4710 h1         1 G6X       0.065200
     68 H28          8.4670    -2.5080    -2.3050 ha         1 G6X       0.142000
     69 H29         10.7860    -2.4700    -1.4300 ha         1 G6X       0.125000
     70 H30         11.4340    -0.8940     0.3410 ha         1 G6X       0.125000
     71 H31          9.7790     0.6920     1.2900 ha         1 G6X       0.135000
     72 H41         -7.3860    -0.8170     1.3160 h1         1 G6X       0.049700
@<TRIPOS>BOND
     1     1     2 2   
     2     1    38 1   
     3     1    39 1   
     4     2     3 1   
     5     2    40 1   
     6     3     4 1   
     7     3    18 1   
     8     3    41 1   
     9     4    37 1   
    10     4    42 1   
    11     4    43 1   
    12     5    13 1   
    13     5    37 1   
    14     6     7 ar  
    15     6    13 ar  
    16     6    17 1   
    17     7     8 ar  
    18     7    44 1   
    19     8    15 ar  
    20     8    45 1   
    21     9    10 1   
    22     9    15 1   
    23     9    46 1   
    24     9    47 1   
    25    10    11 1   
    26    10    19 1   
    27    11    12 1   
    28    11    48 1   
    29    11    49 1   
    30    12    38 1   
    31    12    50 1   
    32    12    51 1   
    33    13    14 ar  
    34    14    15 ar  
    35    14    38 1   
    36    16    17 1   
    37    16    52 1   
    38    16    53 1   
    39    16    54 1   
    40    18    55 1   
    41    19    20 1   
    42    19    56 1   
    43    19    57 1   
    44    20    21 1   
    45    20    58 1   
    46    20    59 1   
    47    21    22 1   
    48    21    60 1   
    49    21    61 1   
    50    22    23 1   
    51    22    62 1   
    52    22    63 1   
    53    23    24 1   
    54    23    64 1   
    55    23    65 1   
    56    24    25 1   
    57    24    66 1   
    58    24    67 1   
    59    25    26 1   
    60    25    33 1   
    61    26    27 1   
    62    26    34 2   
    63    27    28 ar  
    64    27    32 ar  
    65    28    29 ar  
    66    28    68 1   
    67    29    30 ar  
    68    29    69 1   
    69    30    31 ar  
    70    30    70 1   
    71    31    32 ar  
    72    31    71 1   
    73    32    33 1   
    74    33    35 2   
    75    33    36 2   
    76    37    38 1   
    77    37    72 1   
@<TRIPOS>SUBSTRUCTURE
     1 G6X         1 TEMP              0 ****  ****    0 ROOT
