@<TRIPOS>MOLECULE
G6Y
   54    56     1     0     0
SMALL
bcc


@<TRIPOS>ATOM
      1 C4          -5.5970    -0.9610     0.3660 ca         1 G6Y       0.541600
      2 C5          -4.4180    -0.2940     0.0400 ca         1 G6Y      -0.331600
      3 C6          -4.4680     0.5420    -1.1070 ca         1 G6Y       0.765200
      4 N1          -5.5820     0.6770    -1.8160 nb         1 G6Y      -0.869000
      5 N3          -6.7090    -0.8200    -0.3440 nb         1 G6Y      -0.825000
      6 CBE         -5.1640    -3.3070     1.0990 c3         1 G6Y      -0.084100
      7 CBD         -5.6450    -1.9180     1.5180 c3         1 G6Y      -0.133700
      8 C2          -6.6500    -0.0030    -1.4020 ca         1 G6Y       0.947900
      9 NAG         -7.7880     0.1670    -2.1000 nv         1 G6Y      -0.959500
     10 NAH         -3.3920     1.2410    -1.4960 nv         1 G6Y      -0.951500
     11 CAI         -3.2150    -0.4110     0.7790 cg         1 G6Y      -0.111000
     12 CAJ         -2.1520    -0.4560     1.3500 c1         1 G6Y      -0.131100
     13 CAK         -0.8640    -0.4630     2.0390 c3         1 G6Y       0.074700
     14 CBC         -1.0010     0.0540     3.4780 c3         1 G6Y      -0.080100
     15 CAL          0.1570     0.3470     1.2620 ca         1 G6Y      -0.052300
     16 CAM          1.4390    -0.1560     1.0670 ca         1 G6Y      -0.159000
     17 CAQ         -0.1690     1.6050     0.7790 ca         1 G6Y      -0.184000
     18 CAP          0.7770     2.3600     0.0880 ca         1 G6Y       0.129100
     19 OAX          0.3650     3.5620    -0.3550 os         1 G6Y      -0.330900
     20 CAY          1.2640     4.3540    -1.1050 c3         1 G6Y       0.127700
     21 CAO          2.0560     1.8490    -0.1160 ca         1 G6Y      -0.213000
     22 CAN          2.3950     0.5890     0.3800 cp         1 G6Y       0.050000
     23 CAR          3.7560     0.0560     0.1690 cp         1 G6Y      -0.096000
     24 CAS          3.9720    -1.3060    -0.0510 ca         1 G6Y      -0.140000
     25 CAT          5.2510    -1.8020    -0.2440 ca         1 G6Y      -0.112000
     26 CAU          6.3610    -0.9610    -0.2270 ca         1 G6Y      -0.115600
     27 CAZ          7.7670    -1.5070    -0.4390 c          1 G6Y       0.922200
     28 OBB          7.8660    -2.7360    -0.6170 o          1 G6Y      -0.822800
     29 OBA          8.6960    -0.6770    -0.4150 o          1 G6Y      -0.822800
     30 CAV          6.1460     0.3980    -0.0080 ca         1 G6Y      -0.112000
     31 CAW          4.8690     0.8990     0.1870 ca         1 G6Y      -0.140000
     32 H1          -5.7680    -3.7000     0.2810 hc         1 G6Y       0.037033
     33 H2          -4.1250    -3.2830     0.7710 hc         1 G6Y       0.037033
     34 H3          -5.2350    -4.0040     1.9340 hc         1 G6Y       0.037033
     35 H4          -5.0300    -1.5490     2.3410 hc         1 G6Y       0.058700
     36 H5          -6.6730    -1.9780     1.8780 hc         1 G6Y       0.058700
     37 H6          -7.7530     0.6300    -2.9910 hn         1 G6Y       0.436800
     38 H7          -8.5640    -0.4480    -1.9250 hn         1 G6Y       0.436800
     39 H8          -3.4130     1.7190    -2.3810 hn         1 G6Y       0.445800
     40 H9          -2.4880     1.0420    -1.1010 hn         1 G6Y       0.445800
     41 H10         -0.5070    -1.4970     2.0870 hc         1 G6Y       0.068700
     42 H11         -1.3470     1.0870     3.4890 hc         1 G6Y       0.039367
     43 H12         -1.7130    -0.5530     4.0370 hc         1 G6Y       0.039367
     44 H13         -0.0390     0.0080     3.9870 hc         1 G6Y       0.039367
     45 H14          1.6940    -1.1270     1.4730 ha         1 G6Y       0.138000
     46 H15         -1.1620     2.0120     0.9330 ha         1 G6Y       0.138000
     47 H16          2.1520     4.6250    -0.5290 h1         1 G6Y       0.037700
     48 H17          1.5800     3.8520    -2.0240 h1         1 G6Y       0.037700
     49 H18          0.7290     5.2620    -1.3690 h1         1 G6Y       0.037700
     50 H19          2.7910     2.4070    -0.6810 ha         1 G6Y       0.141000
     51 H20          3.1300    -1.9860    -0.0930 ha         1 G6Y       0.106000
     52 H21          5.3890    -2.8610    -0.4180 ha         1 G6Y       0.147000
     53 H23          6.9910     1.0730     0.0170 ha         1 G6Y       0.147000
     54 H24          4.7410     1.9580     0.3760 ha         1 G6Y       0.106000
@<TRIPOS>BOND
     1     1     2 ar  
     2     1     5 ar  
     3     1     7 1   
     4     2     3 ar  
     5     2    11 1   
     6     3     4 ar  
     7     3    10 1   
     8     4     8 ar  
     9     5     8 ar  
    10     6     7 1   
    11     6    32 1   
    12     6    33 1   
    13     6    34 1   
    14     7    35 1   
    15     7    36 1   
    16     8     9 1   
    17     9    37 1   
    18     9    38 1   
    19    10    39 1   
    20    10    40 1   
    21    11    12 3   
    22    12    13 1   
    23    13    14 1   
    24    13    15 1   
    25    13    41 1   
    26    14    42 1   
    27    14    43 1   
    28    14    44 1   
    29    15    16 ar  
    30    15    17 ar  
    31    16    22 ar  
    32    16    45 1   
    33    17    18 ar  
    34    17    46 1   
    35    18    19 1   
    36    18    21 ar  
    37    19    20 1   
    38    20    47 1   
    39    20    48 1   
    40    20    49 1   
    41    21    22 ar  
    42    21    50 1   
    43    22    23 1   
    44    23    24 ar  
    45    23    31 ar  
    46    24    25 ar  
    47    24    51 1   
    48    25    26 ar  
    49    25    52 1   
    50    26    27 1   
    51    26    30 ar  
    52    27    28 1   
    53    27    29 1   
    54    30    31 ar  
    55    30    53 1   
    56    31    54 1   
@<TRIPOS>SUBSTRUCTURE
     1 G6Y         1 TEMP              0 ****  ****    0 ROOT
