@<TRIPOS>MOLECULE
G6Y
   54    56     1     0     0
SMALL
No Charge or Current Charge


@<TRIPOS>ATOM
      1 C4          -5.1560    -0.1760    -0.2740 ca         1 G6Y       0.213300
      2 C5          -4.1150    -1.0910    -0.5700 ca         1 G6Y      -0.201000
      3 C6          -4.3100    -1.9200    -1.6960 ca         1 G6Y       0.436900
      4 N1          -5.4100    -1.8640    -2.4520 nb         1 G6Y      -0.343000
      5 N3          -6.2660    -0.1190    -1.0390 nb         1 G6Y      -0.299000
      6 CBE         -5.5020     0.1320     2.2480 c3         1 G6Y      -0.084100
      7 CBD         -5.1130     0.7960     0.9090 c3         1 G6Y      -0.133700
      8 C2          -6.3210    -0.9630    -2.0760 ca         1 G6Y       0.421900
      9 NAG         -7.4350    -0.9020    -2.8340 nv         1 G6Y      -1.069900
     10 NAH         -3.4030    -2.8490    -2.1030 nv         1 G6Y      -1.061900
     11 CAI         -2.9270    -1.1740     0.2420 cg         1 G6Y      -0.111000
     12 CAJ         -1.9380    -1.2280     0.9450 c1         1 G6Y      -0.131100
     13 CAK         -0.7700    -1.2530     1.8360 c3         1 G6Y       0.074700
     14 CBC         -1.1990    -1.2150     3.3210 c3         1 G6Y      -0.080100
     15 CAL          0.1900    -0.1140     1.4740 ca         1 G6Y      -0.052300
     16 CAM          1.4420    -0.4030     0.8950 ca         1 G6Y      -0.141000
     17 CAQ         -0.1580     1.2320     1.7050 ca         1 G6Y      -0.166000
     18 CAP          0.7260     2.2690     1.3740 ca         1 G6Y       0.129100
     19 OAX          0.3190     3.5640     1.6260 os         1 G6Y      -0.354100
     20 CAY          1.1470     4.7030     1.3270 c3         1 G6Y       0.150900
     21 CAO          1.9770     1.9630     0.7990 ca         1 G6Y      -0.195000
     22 CAN          2.3560     0.6220     0.5490 cp         1 G6Y       0.050000
     23 CAR          3.6840     0.2960    -0.0650 cp         1 G6Y      -0.096000
     24 CAS          3.8310    -0.7870    -0.9660 ca         1 G6Y      -0.122000
     25 CAT          5.0750    -1.0950    -1.5430 ca         1 G6Y      -0.094000
     26 CAU          6.2240    -0.3300    -1.2370 ca         1 G6Y      -0.115600
     27 CAZ          7.5730    -0.6630    -1.8590 c          1 G6Y       0.711600
     28 OBB          7.6470    -1.6130    -2.6270 o          1 G6Y      -0.717500
     29 OBA          8.5390     0.0310    -1.5710 o          1 G6Y      -0.717500
     30 CAV          6.0860     0.7520    -0.3380 ca         1 G6Y      -0.094000
     31 CAW          4.8390     1.0580     0.2350 ca         1 G6Y      -0.122000
     32 H1          -6.5170    -0.2830     2.1950 hc         1 G6Y       0.037033
     33 H2          -4.8100    -0.6810     2.4990 hc         1 G6Y       0.037033
     34 H3          -5.4750     0.8670     3.0630 hc         1 G6Y       0.037033
     35 H4          -4.1140     1.2380     1.0040 hc         1 G6Y       0.058700
     36 H5          -5.7920     1.6400     0.7320 hc         1 G6Y       0.058700
     37 H6          -7.6180    -1.6700    -3.4780 hn         1 G6Y       0.492000
     38 H7          -8.2470    -0.4120    -2.4630 hn         1 G6Y       0.492000
     39 H8          -3.7090    -3.5650    -2.7560 hn         1 G6Y       0.501000
     40 H9          -2.6540    -3.0990    -1.4620 hn         1 G6Y       0.501000
     41 H10         -0.2670    -2.2150     1.6760 hc         1 G6Y       0.068700
     42 H11         -1.7860    -0.3160     3.5470 hc         1 G6Y       0.039367
     43 H12         -1.8110    -2.0900     3.5690 hc         1 G6Y       0.039367
     44 H13         -0.3180    -1.2220     3.9730 hc         1 G6Y       0.039367
     45 H14          1.7190    -1.4400     0.7230 ha         1 G6Y       0.120000
     46 H15         -1.1230     1.4800     2.1390 ha         1 G6Y       0.120000
     47 H16          2.0930     4.6540     1.8820 h1         1 G6Y       0.037700
     48 H17          1.3690     4.7530     0.2530 h1         1 G6Y       0.037700
     49 H18          0.6340     5.6300     1.6120 h1         1 G6Y       0.037700
     50 H19          2.6640     2.7570     0.5240 ha         1 G6Y       0.123000
     51 H20          2.9670    -1.3900    -1.2350 ha         1 G6Y       0.088000
     52 H21          5.1420    -1.9340    -2.2330 ha         1 G6Y       0.129000
     53 H23          6.9490     1.3620    -0.0770 ha         1 G6Y       0.129000
     54 H24          4.7750     1.8890     0.9320 ha         1 G6Y       0.088000
@<TRIPOS>BOND
     1     1     2 ar  
     2     1     5 ar  
     3     1     7 1   
     4     2     3 ar  
     5     2    11 1   
     6     3     4 ar  
     7     3    10 1   
     8     4     8 ar  
     9     5     8 ar  
    10     6     7 1   
    11     6    32 1   
    12     6    33 1   
    13     6    34 1   
    14     7    35 1   
    15     7    36 1   
    16     8     9 1   
    17     9    37 1   
    18     9    38 1   
    19    10    39 1   
    20    10    40 1   
    21    11    12 3   
    22    12    13 1   
    23    13    14 1   
    24    13    15 1   
    25    13    41 1   
    26    14    42 1   
    27    14    43 1   
    28    14    44 1   
    29    15    16 ar  
    30    15    17 ar  
    31    16    22 ar  
    32    16    45 1   
    33    17    18 ar  
    34    17    46 1   
    35    18    19 1   
    36    18    21 ar  
    37    19    20 1   
    38    20    47 1   
    39    20    48 1   
    40    20    49 1   
    41    21    22 ar  
    42    21    50 1   
    43    22    23 1   
    44    23    24 ar  
    45    23    31 ar  
    46    24    25 ar  
    47    24    51 1   
    48    25    26 ar  
    49    25    52 1   
    50    26    27 1   
    51    26    30 ar  
    52    27    28 1   
    53    27    29 1   
    54    30    31 ar  
    55    30    53 1   
    56    31    54 1   
@<TRIPOS>SUBSTRUCTURE
     1 G6Y         1 TEMP              0 ****  ****    0 ROOT
