@<TRIPOS>MOLECULE
G6Z
   40    42     1     0     0
SMALL
No Charge or Current Charge


@<TRIPOS>ATOM
      1 CAA         -0.7860     3.8020     0.4570 c3         1 G6Z      -0.182100
      2 CAF         -5.5580    -0.6630    -0.4630 ca         1 G6Z       0.282900
      3 CAG         -3.6050     0.1960    -1.3630 ca         1 G6Z       0.335900
      4 CAH         -3.5030    -0.9110     0.7980 ca         1 G6Z      -0.134000
      5 CAI          6.6840    -0.2720     0.2480 cy         1 G6Z      -0.093400
      6 CAJ          5.7400     0.1770    -0.9260 cy         1 G6Z      -0.094400
      7 CAK          5.3850    -0.4170     1.1190 cy         1 G6Z      -0.094400
      8 CAP         -1.5970     2.5180     0.2520 c          1 G6Z       0.501600
      9 CAQ          3.4610     0.3140    -0.0960 c          1 G6Z       0.621100
     10 CAR         -4.8870    -1.1370     0.7020 ca         1 G6Z       0.244000
     11 CAS         -2.8490    -0.2250    -0.2440 ca         1 G6Z      -0.026000
     12 CAT          0.9970    -0.0850    -0.1610 cc         1 G6Z       0.593300
     13 CAU         -0.8160     1.2380     0.0310 cd         1 G6Z       0.237500
     14 CAV         -1.4060    -0.0040    -0.1810 cc         1 G6Z      -0.124000
     15 CAW          4.6700    -0.7650    -0.2440 cy         1 G6Z       0.065200
     16 NAC          4.5260    -2.1780    -0.6790 n8         1 G6Z      -1.029200
     17 NAL         -4.9390    -0.0140    -1.4820 nb         1 G6Z      -0.636000
     18 NAM          0.5830     1.1570     0.0260 nd         1 G6Z      -0.657000
     19 OAD         -2.8220     2.5870     0.2800 o          1 G6Z      -0.512100
     20 OAE          3.4040     1.5260     0.0820 o          1 G6Z      -0.531100
     21 SAO         -0.2500    -1.2880    -0.3360 ss         1 G6Z      -0.084400
     22 H1          -0.1040     3.9320    -0.3910 hc         1 G6Z       0.068033
     23 H2          -1.4170     4.6860     0.6080 hc         1 G6Z       0.068033
     24 H3          -0.0910     3.6540     1.2910 hc         1 G6Z       0.068033
     25 H4          -6.6300    -0.8180    -0.5810 h4         1 G6Z       0.017100
     26 H5          -3.1230     0.7140    -2.1920 h4         1 G6Z       0.028100
     27 H6          -2.9440    -1.2570     1.6620 ha         1 G6Z       0.121000
     28 H8           7.4080     0.4760     0.5900 hc         1 G6Z       0.054700
     29 H9           5.5720     1.2590    -0.9510 hc         1 G6Z       0.069200
     30 H10          6.0660    -0.1270    -1.9270 hc         1 G6Z       0.069200
     31 H11          5.4060    -1.2220     1.8610 hc         1 G6Z       0.069200
     32 H12          5.1110     0.5090     1.6420 hc         1 G6Z       0.069200
     33 H15          4.5290    -2.2370    -1.7070 hn         1 G6Z       0.418500
     34 H16          5.3710    -2.7090    -0.4250 hn         1 G6Z       0.418500
     35 NAN          2.3200    -0.4410    -0.2100 ns         1 G6Z      -0.481400
     36 NAB         -5.5380    -1.8050     1.7270 nv         1 G6Z      -1.072000
     37 H7           7.2200    -1.2120     0.0680 hc         1 G6Z       0.054700
     38 H13         -5.0110    -2.2050     2.5030 hn         1 G6Z       0.454000
     39 H14         -6.5240    -2.0560     1.6430 hn         1 G6Z       0.454000
     40 H18          2.5290    -1.4220    -0.3520 hn         1 G6Z       0.368500
@<TRIPOS>BOND
     1     1     8 1   
     2     1    22 1   
     3     1    23 1   
     4     1    24 1   
     5     2    10 ar  
     6     2    17 ar  
     7     2    25 1   
     8     3    11 ar  
     9     3    17 ar  
    10     3    26 1   
    11     4    10 ar  
    12     4    11 ar  
    13     4    27 1   
    14     5     6 1   
    15     5     7 1   
    16     5    28 1   
    17     5    37 1   
    18     6    15 1   
    19     6    29 1   
    20     6    30 1   
    21     7    15 1   
    22     7    31 1   
    23     7    32 1   
    24     8    13 1   
    25     8    19 2   
    26     9    15 1   
    27     9    20 2   
    28     9    35 1   
    29    10    36 1   
    30    11    14 1   
    31    12    18 2   
    32    12    21 1   
    33    12    35 1   
    34    13    14 2   
    35    13    18 1   
    36    14    21 1   
    37    15    16 1   
    38    16    33 1   
    39    16    34 1   
    40    35    40 1   
    41    36    38 1   
    42    36    39 1   
@<TRIPOS>SUBSTRUCTURE
     1 G6Z         1 TEMP              0 ****  ****    0 ROOT
