@<TRIPOS>MOLECULE
G6Z
   40    42     1     0     0
SMALL
abcg2


@<TRIPOS>ATOM
      1 CAA         -0.5280     3.8510     0.1980 c3         1 G6Z      -0.182100
      2 CAF         -5.5790    -0.7650    -0.3310 ca         1 G6Z       0.282900
      3 CAG         -3.7520     0.3220    -1.1650 ca         1 G6Z       0.335900
      4 CAH         -3.5040    -0.9970     0.8150 ca         1 G6Z      -0.134000
      5 CAI          6.7130    -0.3520     0.3110 cy         1 G6Z      -0.093400
      6 CAJ          5.8520     0.1380    -0.8670 cy         1 G6Z      -0.094400
      7 CAK          5.4190    -0.5240     1.1280 cy         1 G6Z      -0.094400
      8 CAP         -1.4640     2.6770     0.1570 c          1 G6Z       0.501600
      9 CAQ          3.3570     0.3440    -0.1540 c          1 G6Z       0.621100
     10 CAR         -4.8620    -1.3150     0.7400 ca         1 G6Z       0.244000
     11 CAS         -2.9420    -0.1610    -0.1390 ca         1 G6Z      -0.026000
     12 CAT          0.9230     0.0400    -0.1340 cc         1 G6Z       0.593300
     13 CAU         -0.8380     1.3440    -0.0190 cd         1 G6Z       0.237500
     14 CAV         -1.5120     0.1560    -0.1040 cc         1 G6Z      -0.124000
     15 CAW          4.6160    -0.5130    -0.1990 cy         1 G6Z       0.065200
     16 NAC          4.3010    -1.8600    -0.6360 n8         1 G6Z      -1.029200
     17 NAL         -5.0370     0.0210    -1.2480 nb         1 G6Z      -0.636000
     18 NAM          0.5280     1.2610    -0.0420 nd         1 G6Z      -0.657000
     19 OAD         -2.6640     2.7960     0.2740 o          1 G6Z      -0.512100
     20 OAE          3.3850     1.5510    -0.0640 o          1 G6Z      -0.531100
     21 SAO         -0.3660    -1.1290    -0.2090 ss         1 G6Z      -0.084400
     22 H1           0.0640     3.9000    -0.7160 hc         1 G6Z       0.068033
     23 H2          -1.0870     4.7770     0.3170 hc         1 G6Z       0.068033
     24 H3           0.1800     3.7470     1.0200 hc         1 G6Z       0.068033
     25 H4          -6.6360    -0.9870    -0.4390 h4         1 G6Z       0.017100
     26 H5          -3.3370     0.9550    -1.9400 h4         1 G6Z       0.028100
     27 H6          -2.9000    -1.3920     1.6240 ha         1 G6Z       0.121000
     28 H8           7.4560     0.3390     0.7050 hc         1 G6Z       0.054700
     29 H9           5.7810     1.2250    -0.8910 hc         1 G6Z       0.069200
     30 H10          6.0930    -0.2230    -1.8680 hc         1 G6Z       0.069200
     31 H11          5.3050    -1.4150     1.7470 hc         1 G6Z       0.069200
     32 H12          5.2090     0.3530     1.7400 hc         1 G6Z       0.069200
     33 H15          4.3430    -1.9320    -1.6450 hn         1 G6Z       0.418500
     34 H16          4.9550    -2.5360    -0.2650 hn         1 G6Z       0.418500
     35 NAN          2.2140    -0.4070    -0.1810 ns         1 G6Z      -0.481400
     36 NAB         -5.4770    -2.0830     1.6940 nv         1 G6Z      -1.072000
     37 H7           7.2000    -1.3040     0.1030 hc         1 G6Z       0.054700
     38 H13         -4.8840    -2.7110     2.2120 hn         1 G6Z       0.454000
     39 H14         -6.3490    -2.5120     1.4290 hn         1 G6Z       0.454000
     40 H18          2.4070    -1.4030    -0.2790 hn         1 G6Z       0.368500
@<TRIPOS>BOND
     1     1     8 1   
     2     1    22 1   
     3     1    23 1   
     4     1    24 1   
     5     2    10 ar  
     6     2    17 ar  
     7     2    25 1   
     8     3    11 ar  
     9     3    17 ar  
    10     3    26 1   
    11     4    10 ar  
    12     4    11 ar  
    13     4    27 1   
    14     5     6 1   
    15     5     7 1   
    16     5    28 1   
    17     5    37 1   
    18     6    15 1   
    19     6    29 1   
    20     6    30 1   
    21     7    15 1   
    22     7    31 1   
    23     7    32 1   
    24     8    13 1   
    25     8    19 2   
    26     9    15 1   
    27     9    20 2   
    28     9    35 1   
    29    10    36 1   
    30    11    14 1   
    31    12    18 2   
    32    12    21 1   
    33    12    35 1   
    34    13    14 2   
    35    13    18 1   
    36    14    21 1   
    37    15    16 1   
    38    16    33 1   
    39    16    34 1   
    40    35    40 1   
    41    36    38 1   
    42    36    39 1   
@<TRIPOS>SUBSTRUCTURE
     1 G6Z         1 TEMP              0 ****  ****    0 ROOT
