@<TRIPOS>MOLECULE
G71
   53    55     1     0     0
SMALL
abcg2


@<TRIPOS>ATOM
      1 N1          15.8250    46.2630    63.4460 na         1 G71      -0.941200
      2 C2          16.8760    46.5710    62.6430 cc         1 G71       0.896100
      3 N3          16.8370    47.4630    61.6810 nd         1 G71      -0.852100
      4 C4          15.7000    48.1860    61.4080 c          1 G71       0.770100
      5 N5          13.5070    46.8240    63.8720 na         1 G71      -0.130000
      6 C6          12.5830    47.6970    63.3150 cc         1 G71      -0.223300
      7 C7          13.2020    48.3700    62.3000 cd         1 G71      -0.091000
      8 C8          14.5480    47.8940    62.2260 cd         1 G71      -0.326600
      9 C9          14.6770    46.9480    63.2180 cc         1 G71       0.286000
     10 O10         15.6940    49.0330    60.5130 o          1 G71      -0.650100
     11 N11         18.0070    45.8690    62.8540 nv         1 G71      -1.043200
     12 S12         13.8820    48.0530    67.4970 ss         1 G71       0.220000
     13 C13         15.5550    48.4760    67.4820 cc         1 G71      -0.248600
     14 C14         15.7060    49.8130    67.2420 cd         1 G71      -0.095000
     15 C15         14.4760    50.4890    67.0820 cd         1 G71      -0.147000
     16 C16         13.3870    49.6670    67.1790 cc         1 G71      -0.224300
     17 O18         17.7740    47.8060    67.1630 o          1 G71      -0.604100
     18 N19         16.3710    46.2730    68.0420 ns         1 G71      -0.456900
     19 C20         17.2150    45.1310    67.7280 c3         1 G71      -0.017300
     20 C21         16.7060    43.9110    68.4890 c3         1 G71      -0.048400
     21 C22         17.5610    42.6730    68.2730 c3         1 G71      -0.202400
     22 C23         17.1530    41.4410    69.1090 c          1 G71       0.718000
     23 O24         18.0000    40.5270    69.1730 o          1 G71      -0.758000
     24 O25         16.0170    41.4440    69.6240 o          1 G71      -0.758000
     25 C26         17.1930    44.8960    66.2020 c          1 G71       0.723000
     26 O27         18.2700    44.7320    65.6080 o          1 G71      -0.729000
     27 O28         16.0470    44.8990    65.6800 o          1 G71      -0.729000
     28 C29         11.1920    47.7750    63.8450 c3         1 G71       0.007900
     29 C30         11.1220    48.2290    65.3070 c3         1 G71      -0.074400
     30 C31         11.5090    49.6910    65.5040 c3         1 G71      -0.074400
     31 C32         11.9590    50.0340    66.9330 c3         1 G71       0.003900
     32 H2          13.3330    46.2020    64.6460 hn         1 G71       0.360000
     33 H3          12.7410    49.1200    61.6760 ha         1 G71       0.120000
     34 H4          18.8340    46.2140    62.3970 hn         1 G71       0.512500
     35 H5          18.1460    45.3780    63.7360 hn         1 G71       0.512500
     36 H6          16.6720    50.2920    67.1730 ha         1 G71       0.145000
     37 H7          14.3890    51.5480    66.8810 ha         1 G71       0.117000
     38 H8          15.4220    46.0620    68.3110 hn         1 G71       0.298500
     39 H9          18.2380    45.3470    68.0430 h1         1 G71       0.069700
     40 H10         16.6810    44.1580    69.5540 hc         1 G71       0.034200
     41 H11         15.6720    43.7120    68.1920 hc         1 G71       0.034200
     42 H12         17.5330    42.3730    67.2190 hc         1 G71       0.031200
     43 H13         18.6110    42.9060    68.4760 hc         1 G71       0.031200
     44 H16         10.6230    48.4610    63.2130 hc         1 G71       0.036700
     45 H17         10.7060    46.7990    63.7540 hc         1 G71       0.036700
     46 H18         10.1070    48.0720    65.6800 hc         1 G71       0.034700
     47 H19         11.7560    47.5720    65.9080 hc         1 G71       0.034700
     48 H20         12.3070    49.9730    64.8120 hc         1 G71       0.045700
     49 H21         10.6520    50.3190    65.2460 hc         1 G71       0.045700
     50 H22         11.8690    51.1100    67.0920 hc         1 G71       0.036700
     51 H23         11.2970    49.5570    67.6600 hc         1 G71       0.036700
     52 H24         15.9270    45.6180    64.2790 hn         1 G71       0.599000
     53 C17         16.6570    47.4960    67.5550 c          1 G71       0.622700
@<TRIPOS>BOND
     1     1     2 1   
     2     1     9 1   
     3     1    52 1   
     4     2     3 2   
     5     2    11 1   
     6     3     4 1   
     7     4     8 1   
     8     4    10 2   
     9     5     6 1   
    10     5     9 1   
    11     5    32 1   
    12     6     7 2   
    13     6    28 1   
    14     7     8 1   
    15     7    33 1   
    16     8     9 2   
    17    11    34 1   
    18    11    35 1   
    19    12    13 1   
    20    12    16 1   
    21    13    14 2   
    22    13    53 1   
    23    14    15 1   
    24    14    36 1   
    25    15    16 2   
    26    15    37 1   
    27    16    31 1   
    28    17    53 2   
    29    18    19 1   
    30    18    38 1   
    31    18    53 1   
    32    19    20 1   
    33    19    25 1   
    34    19    39 1   
    35    20    21 1   
    36    20    40 1   
    37    20    41 1   
    38    21    22 1   
    39    21    42 1   
    40    21    43 1   
    41    22    23 1   
    42    22    24 1   
    43    25    26 1   
    44    25    27 1   
    45    28    29 1   
    46    28    44 1   
    47    28    45 1   
    48    29    30 1   
    49    29    46 1   
    50    29    47 1   
    51    30    31 1   
    52    30    48 1   
    53    30    49 1   
    54    31    50 1   
    55    31    51 1   
@<TRIPOS>SUBSTRUCTURE
     1 G71         1 TEMP              0 ****  ****    0 ROOT
