@<TRIPOS>MOLECULE
G71
   53    55     1     0     0
SMALL
No Charge or Current Charge


@<TRIPOS>ATOM
      1 N1          15.5660    45.8600    63.1030 na         1 G71      -0.941200
      2 C2          16.5560    46.0320    62.2190 cc         1 G71       0.896100
      3 N3          16.5400    46.8980    61.2670 nd         1 G71      -0.852100
      4 C4          15.4650    47.7430    61.0530 c          1 G71       0.770100
      5 N5          13.3180    46.6240    63.7190 na         1 G71      -0.130000
      6 C6          12.4600    47.6260    63.2260 cc         1 G71      -0.223300
      7 C7          13.1140    48.1940    62.1460 cd         1 G71      -0.091000
      8 C8          14.3700    47.5580    61.9810 cd         1 G71      -0.326600
      9 C9          14.4450    46.6310    62.9310 cc         1 G71       0.286000
     10 O10         15.4850    48.5600    60.1470 o          1 G71      -0.650100
     11 N11         17.5960    45.2890    62.3820 nv         1 G71      -1.043200
     12 S12         14.3170    48.4260    66.7210 ss         1 G71       0.220000
     13 C13         15.3830    48.3680    68.1170 cc         1 G71      -0.248600
     14 C14         15.1220    49.4020    68.9830 cd         1 G71      -0.095000
     15 C15         14.0420    50.2250    68.5600 cd         1 G71      -0.147000
     16 C16         13.4710    49.8350    67.3710 cc         1 G71      -0.224300
     17 O18         17.2010    47.3200    69.2570 o          1 G71      -0.604100
     18 N19         16.4190    46.3780    67.3260 ns         1 G71      -0.456900
     19 C20         17.3210    45.2080    67.2310 c3         1 G71      -0.017300
     20 C21         16.9990    44.1330    68.3040 c3         1 G71      -0.048400
     21 C22         17.9810    42.9340    68.3060 c3         1 G71      -0.202400
     22 C23         17.6310    41.9620    69.4460 c          1 G71       0.718000
     23 O24         18.1390    42.1480    70.5410 o          1 G71      -0.758000
     24 O25         16.8270    41.0710    69.2190 o          1 G71      -0.758000
     25 C26         17.2530    44.6410    65.7820 c          1 G71       0.723000
     26 O27         18.2500    44.7180    65.0800 o          1 G71      -0.729000
     27 O28         16.1540    44.3600    65.3220 o          1 G71      -0.729000
     28 C29         11.1180    47.9820    63.8170 c3         1 G71       0.007900
     29 C30         11.2200    48.6210    65.2210 c3         1 G71      -0.074400
     30 C31         11.9890    49.9690    65.2400 c3         1 G71      -0.074400
     31 C32         12.3130    50.5040    66.6590 c3         1 G71       0.003900
     32 H2          13.1470    46.0050    64.5000 hn         1 G71       0.360000
     33 H3          12.7330    49.0080    61.5360 ha         1 G71       0.120000
     34 H4          18.3780    45.6370    61.8510 hn         1 G71       0.512500
     35 H5          17.8140    45.0670    63.3530 hn         1 G71       0.512500
     36 H6          15.6720    49.5650    69.9060 ha         1 G71       0.145000
     37 H7          13.6940    51.0810    69.1300 ha         1 G71       0.117000
     38 H8          15.7200    46.4820    66.6020 hn         1 G71       0.298500
     39 H9          18.3480    45.5620    67.3910 h1         1 G71       0.069700
     40 H10         17.0180    44.5990    69.2960 hc         1 G71       0.034200
     41 H11         15.9770    43.7650    68.1510 hc         1 G71       0.034200
     42 H12         17.8610    42.4370    67.3370 hc         1 G71       0.031200
     43 H13         18.9780    43.3620    68.4650 hc         1 G71       0.031200
     44 H16         10.5880    48.6720    63.1490 hc         1 G71       0.036700
     45 H17         10.4980    47.0800    63.8830 hc         1 G71       0.036700
     46 H18         10.2070    48.7880    65.6070 hc         1 G71       0.034700
     47 H19         11.6880    47.9020    65.9020 hc         1 G71       0.034700
     48 H20         12.9190    49.8930    64.6650 hc         1 G71       0.045700
     49 H21         11.3750    50.7160    64.7200 hc         1 G71       0.045700
     50 H22         12.5380    51.5740    66.5700 hc         1 G71       0.036700
     51 H23         11.4110    50.4380    67.2800 hc         1 G71       0.036700
     52 H24         15.6810    45.1780    63.8560 hn         1 G71       0.599000
     53 C17         16.4190    47.3350    68.3160 c          1 G71       0.622700
@<TRIPOS>BOND
     1     1     2 1   
     2     1     9 1   
     3     1    52 1   
     4     2     3 2   
     5     2    11 1   
     6     3     4 1   
     7     4     8 1   
     8     4    10 2   
     9     5     6 1   
    10     5     9 1   
    11     5    32 1   
    12     6     7 2   
    13     6    28 1   
    14     7     8 1   
    15     7    33 1   
    16     8     9 2   
    17    11    34 1   
    18    11    35 1   
    19    12    13 1   
    20    12    16 1   
    21    13    14 2   
    22    13    53 1   
    23    14    15 1   
    24    14    36 1   
    25    15    16 2   
    26    15    37 1   
    27    16    31 1   
    28    17    53 2   
    29    18    19 1   
    30    18    38 1   
    31    18    53 1   
    32    19    20 1   
    33    19    25 1   
    34    19    39 1   
    35    20    21 1   
    36    20    40 1   
    37    20    41 1   
    38    21    22 1   
    39    21    42 1   
    40    21    43 1   
    41    22    23 1   
    42    22    24 1   
    43    25    26 1   
    44    25    27 1   
    45    28    29 1   
    46    28    44 1   
    47    28    45 1   
    48    29    30 1   
    49    29    46 1   
    50    29    47 1   
    51    30    31 1   
    52    30    48 1   
    53    30    49 1   
    54    31    50 1   
    55    31    51 1   
@<TRIPOS>SUBSTRUCTURE
     1 G71         1 TEMP              0 ****  ****    0 ROOT
