@<TRIPOS>MOLECULE
G73
   52    55     1     0     0
SMALL
No Charge or Current Charge


@<TRIPOS>ATOM
      1 C01          8.2590     3.0410    -0.1400 c3         1 G73       0.147900
      2 O02          6.9380     2.9500    -0.7050 os         1 G73      -0.339100
      3 C03          6.0980     1.8870    -0.4460 ca         1 G73       0.126100
      4 C04          4.8300     1.8900    -1.0460 ca         1 G73      -0.151500
      5 C05          3.9290     0.8330    -0.8190 ca         1 G73      -0.096000
      6 C06          6.4680     0.8070     0.3850 ca         1 G73      -0.151500
      7 C07          5.5640    -0.2490     0.6090 ca         1 G73      -0.096000
      8 C08          4.2860    -0.2420     0.0210 ca         1 G73       0.260000
      9 N09          3.4250    -1.3210     0.2630 nu         1 G73      -0.939900
     10 C10          2.0450    -1.4830     0.2310 ca         1 G73       0.456900
     11 N11          1.2600    -0.3940     0.1900 nb         1 G73      -0.314000
     12 C12         -0.0670    -0.6160     0.1920 ca         1 G73       0.406900
     13 N13         -0.8410     0.5330     0.1710 nu         1 G73      -0.948900
     14 C14         -2.2290     0.7440     0.1390 ca         1 G73       0.312000
     15 C15         -2.8280     1.5120     1.1680 ca         1 G73      -0.075300
     16 C16         -1.9970     2.0960     2.3120 c3         1 G73      -0.048300
     17 C17         -4.2190     1.7340     1.1580 ca         1 G73      -0.081500
     18 C18         -5.0290     1.2100     0.1360 ca         1 G73      -0.079800
     19 C19         -6.5000     1.4660     0.1660 ce         1 G73      -0.085200
     20 C20         -7.4750     1.0040    -0.6700 cf         1 G73      -0.126700
     21 C21         -8.8580     1.3240    -0.5310 ch         1 G73       0.278700
     22 N22         -9.9800     1.6100    -0.3850 n1         1 G73      -0.463000
     23 C23         -4.4270     0.4670    -0.8970 ca         1 G73      -0.081500
     24 C24         -3.0380     0.2350    -0.9130 ca         1 G73      -0.075300
     25 C25         -2.4560    -0.5300    -2.1040 c3         1 G73      -0.048300
     26 N26         -0.6970    -1.8090     0.2620 nb         1 G73      -0.205000
     27 C27          0.1030    -2.8860     0.3110 ca         1 G73       0.291000
     28 C28          1.4630    -2.7530     0.2980 ca         1 G73      -0.304200
     29 N29          2.0020    -4.0140     0.3540 na         1 G73      -0.290600
     30 C30          0.9320    -4.9000     0.4050 cc         1 G73       0.434700
     31 N31         -0.2430    -4.2350     0.3810 nd         1 G73      -0.648700
     32 H1           8.7520     3.9620    -0.4730 h1         1 G73       0.040700
     33 H2           8.2140     3.0570     0.9570 h1         1 G73       0.040700
     34 H3           8.8770     2.1910    -0.4550 h1         1 G73       0.040700
     35 H4           4.5440     2.7140    -1.6960 ha         1 G73       0.125000
     36 H5           2.9640     0.8490    -1.3140 ha         1 G73       0.125000
     37 H6           7.4430     0.7690     0.8620 ha         1 G73       0.125000
     38 H7           5.8600    -1.0750     1.2510 ha         1 G73       0.125000
     39 H8           3.8960    -2.1490     0.6180 hn         1 G73       0.491000
     40 H9          -0.3080     1.3530     0.4520 hn         1 G73       0.508000
     41 H10         -1.2840     2.8420     1.9410 hc         1 G73       0.047200
     42 H11         -2.6240     2.5900     3.0630 hc         1 G73       0.047200
     43 H12         -1.4300     1.3120     2.8290 hc         1 G73       0.047200
     44 H13         -4.6740     2.3160     1.9560 ha         1 G73       0.114500
     45 H14         -6.8170     2.1160     0.9850 ha         1 G73       0.180000
     46 H16         -7.2240     0.3490    -1.5010 ha         1 G73       0.202000
     47 H18         -5.0320     0.0700    -1.7070 ha         1 G73       0.114500
     48 H19         -2.4370    -1.6080    -1.9080 hc         1 G73       0.047200
     49 H20         -3.0560    -0.3730    -3.0080 hc         1 G73       0.047200
     50 H21         -1.4360    -0.2080    -2.3440 hc         1 G73       0.047200
     51 H22          2.9790    -4.2810     0.3320 hn         1 G73       0.356000
     52 H23          1.0670    -5.9750     0.4520 h5         1 G73       0.065800
@<TRIPOS>BOND
     1     1     2 1   
     2     1    32 1   
     3     1    33 1   
     4     1    34 1   
     5     2     3 1   
     6     3     4 ar  
     7     3     6 ar  
     8     4     5 ar  
     9     4    35 1   
    10     5     8 ar  
    11     5    36 1   
    12     6     7 ar  
    13     6    37 1   
    14     7     8 ar  
    15     7    38 1   
    16     8     9 1   
    17     9    10 1   
    18     9    39 1   
    19    10    11 ar  
    20    10    28 ar  
    21    11    12 ar  
    22    12    13 1   
    23    12    26 ar  
    24    13    14 1   
    25    13    40 1   
    26    14    15 ar  
    27    14    24 ar  
    28    15    16 1   
    29    15    17 ar  
    30    16    41 1   
    31    16    42 1   
    32    16    43 1   
    33    17    18 ar  
    34    17    44 1   
    35    18    19 1   
    36    18    23 ar  
    37    19    20 2   
    38    19    45 1   
    39    20    21 1   
    40    20    46 1   
    41    21    22 3   
    42    23    24 ar  
    43    23    47 1   
    44    24    25 1   
    45    25    48 1   
    46    25    49 1   
    47    25    50 1   
    48    26    27 ar  
    49    27    28 ar  
    50    27    31 1   
    51    28    29 1   
    52    29    30 1   
    53    29    51 1   
    54    30    31 2   
    55    30    52 1   
@<TRIPOS>SUBSTRUCTURE
     1 G73         1 TEMP              0 ****  ****    0 ROOT
