@<TRIPOS>MOLECULE
G73
   52    55     1     0     0
SMALL
bcc


@<TRIPOS>ATOM
      1 C01          7.9410     3.0710     0.0880 c3         1 G73       0.124700
      2 O02          6.6740     3.0130    -0.5360 os         1 G73      -0.315900
      3 C03          5.9180     1.9120    -0.3470 ca         1 G73       0.126100
      4 C04          4.6780     1.8900    -0.9860 ca         1 G73      -0.169500
      5 C05          3.8280     0.8070    -0.8590 ca         1 G73      -0.114000
      6 C06          6.2940     0.8180     0.4250 ca         1 G73      -0.169500
      7 C07          5.4310    -0.2620     0.5620 ca         1 G73      -0.114000
      8 C08          4.1930    -0.2850    -0.0700 ca         1 G73       0.121600
      9 N09          3.4010    -1.4350     0.0730 nu         1 G73      -0.746300
     10 C10          2.0520    -1.5210     0.1180 ca         1 G73       0.785200
     11 N11          1.3020    -0.4400     0.0020 nb         1 G73      -0.840000
     12 C12         -0.0360    -0.5550     0.0570 ca         1 G73       0.932900
     13 N13         -0.7000     0.6350    -0.0870 nu         1 G73      -0.755300
     14 C14         -2.0910     0.7850    -0.0050 ca         1 G73       0.173600
     15 C15         -2.6250     1.5360     1.0500 ca         1 G73      -0.075300
     16 C16         -1.7290     2.1310     2.0960 c3         1 G73      -0.048300
     17 C17         -3.9990     1.7100     1.1150 ca         1 G73      -0.099500
     18 C18         -4.8510     1.1520     0.1620 ca         1 G73      -0.079800
     19 C19         -6.2820     1.3630     0.3070 ce         1 G73      -0.035200
     20 C20         -7.2420     0.8890    -0.5020 cf         1 G73      -0.076700
     21 C21         -8.6110     1.1630    -0.2530 ch         1 G73       0.189500
     22 N22         -9.7310     1.3740    -0.0680 n1         1 G73      -0.373800
     23 C23         -4.2900     0.4280    -0.8910 ca         1 G73      -0.099500
     24 C24         -2.9210     0.2420    -0.9990 ca         1 G73      -0.075300
     25 C25         -2.3580    -0.4850    -2.1810 c3         1 G73      -0.048300
     26 N26         -0.7440    -1.6520     0.2350 nb         1 G73      -0.731000
     27 C27          0.0080    -2.7550     0.3410 ca         1 G73       0.619300
     28 C28          1.3980    -2.7530     0.2880 ca         1 G73      -0.434800
     29 N29          1.7670    -4.0660     0.4420 na         1 G73      -0.240300
     30 C30          0.6270    -4.7660     0.5750 cc         1 G73       0.434700
     31 N31         -0.4540    -4.0250     0.5210 nd         1 G73      -0.648700
     32 H1           8.3800     4.0260    -0.1910 h1         1 G73       0.040700
     33 H2           7.8630     3.0250     1.1780 h1         1 G73       0.040700
     34 H3           8.6020     2.2690    -0.2520 h1         1 G73       0.040700
     35 H4           4.3820     2.7320    -1.5990 ha         1 G73       0.143000
     36 H5           2.8830     0.8190    -1.3790 ha         1 G73       0.143000
     37 H6           7.2470     0.7840     0.9350 ha         1 G73       0.143000
     38 H7           5.7380    -1.1000     1.1760 ha         1 G73       0.143000
     39 H8           3.9100    -2.2740     0.3050 hn         1 G73       0.435800
     40 H9          -0.1310     1.4540     0.0670 hn         1 G73       0.452800
     41 H10         -1.0400     2.8660     1.6730 hc         1 G73       0.047200
     42 H11         -2.3120     2.6370     2.8630 hc         1 G73       0.047200
     43 H12         -1.1220     1.3670     2.5850 hc         1 G73       0.047200
     44 H13         -4.4220     2.2770     1.9360 ha         1 G73       0.132500
     45 H14         -6.5810     1.9600     1.1630 ha         1 G73       0.130000
     46 H16         -7.0350     0.2800    -1.3730 ha         1 G73       0.152000
     47 H18         -4.9230     0.0130    -1.6670 ha         1 G73       0.132500
     48 H19         -2.0950    -1.5110    -1.9260 hc         1 G73       0.047200
     49 H20         -3.0800    -0.5140    -2.9950 hc         1 G73       0.047200
     50 H21         -1.4500    -0.0020    -2.5470 hc         1 G73       0.047200
     51 H22          2.6950    -4.4590     0.4520 hn         1 G73       0.305700
     52 H23          0.6390    -5.8370     0.7100 h5         1 G73       0.065800
@<TRIPOS>BOND
     1     1     2 1   
     2     1    32 1   
     3     1    33 1   
     4     1    34 1   
     5     2     3 1   
     6     3     4 ar  
     7     3     6 ar  
     8     4     5 ar  
     9     4    35 1   
    10     5     8 ar  
    11     5    36 1   
    12     6     7 ar  
    13     6    37 1   
    14     7     8 ar  
    15     7    38 1   
    16     8     9 1   
    17     9    10 1   
    18     9    39 1   
    19    10    11 ar  
    20    10    28 ar  
    21    11    12 ar  
    22    12    13 1   
    23    12    26 ar  
    24    13    14 1   
    25    13    40 1   
    26    14    15 ar  
    27    14    24 ar  
    28    15    16 1   
    29    15    17 ar  
    30    16    41 1   
    31    16    42 1   
    32    16    43 1   
    33    17    18 ar  
    34    17    44 1   
    35    18    19 1   
    36    18    23 ar  
    37    19    20 2   
    38    19    45 1   
    39    20    21 1   
    40    20    46 1   
    41    21    22 3   
    42    23    24 ar  
    43    23    47 1   
    44    24    25 1   
    45    25    48 1   
    46    25    49 1   
    47    25    50 1   
    48    26    27 ar  
    49    27    28 ar  
    50    27    31 1   
    51    28    29 1   
    52    29    30 1   
    53    29    51 1   
    54    30    31 2   
    55    30    52 1   
@<TRIPOS>SUBSTRUCTURE
     1 G73         1 TEMP              0 ****  ****    0 ROOT
