@<TRIPOS>MOLECULE
G74
   51    51     1     0     0
SMALL
No Charge or Current Charge


@<TRIPOS>ATOM
      1 O88          3.7110     1.8890    -1.7300 o          1 G74      -0.499000
      2 C84          3.3420     1.4790    -0.6380 c          1 G74       0.593100
      3 O86          4.1810     1.0240     0.3450 os         1 G74      -0.452100
      4 C3           5.5960     1.0590     0.0940 c3         1 G74       0.167600
      5 C5           6.2990     0.4970     1.3400 c3         1 G74      -0.097100
      6 C82          1.8730     1.3470    -0.2340 c3         1 G74      -0.137400
      7 C63          1.2790    -0.0050    -0.7090 c3         1 G74      -0.075400
      8 C57         -0.1760    -0.2590    -0.2370 c3         1 G74       0.125700
      9 C59         -0.7670    -1.6100    -0.7270 c3         1 G74      -0.078400
     10 C61         -0.0070    -2.9050    -0.3160 c5         1 G74      -0.150700
     11 C73         -0.6470    -4.2100    -0.8610 c5         1 G74      -0.092400
     12 C71          0.0140    -5.2790     0.0510 c5         1 G74       0.100000
     13 N69          0.0710    -4.5510     1.3170 ns         1 G74      -0.514900
     14 C65          0.0670    -3.1880     1.1940 c          1 G74       0.562000
     15 O66         -0.0970    -2.4400     2.1440 o          1 G74      -0.549000
     16 N49         -1.0480     0.8370    -0.6630 ns         1 G74      -0.508900
     17 C39         -2.0980     1.3270     0.0580 c          1 G74       0.645100
     18 O47         -2.4360     0.9200     1.1580 o          1 G74      -0.540000
     19 O37         -2.6730     2.3330    -0.6670 os         1 G74      -0.484100
     20 C1          -3.8190     3.0790    -0.1930 c3         1 G74       0.225000
     21 C2          -3.4470     3.8360     1.1080 c3         1 G74      -0.108433
     22 C4          -4.1110     4.0890    -1.3240 c3         1 G74      -0.108433
     23 C6          -5.0260     2.1210    -0.0150 c3         1 G74      -0.108433
     24 H821         1.8030     1.3720     0.8600 hc         1 G74       0.081200
     25 H822         1.3090     2.1760    -0.6770 hc         1 G74       0.081200
     26 H31C         5.8550     0.4460    -0.7800 h1         1 G74       0.047200
     27 H32C         5.9370     2.0870    -0.0870 h1         1 G74       0.047200
     28 H51C         6.0640     1.1050     2.2220 hc         1 G74       0.046367
     29 H52C         5.9820    -0.5350     1.5300 hc         1 G74       0.046367
     30 H53C         7.3850     0.5030     1.1970 hc         1 G74       0.046367
     31 H631         1.3190    -0.0540    -1.8050 hc         1 G74       0.057200
     32 H632         1.9230    -0.8090    -0.3340 hc         1 G74       0.057200
     33 H57         -0.1660    -0.2680     0.8620 h1         1 G74       0.109700
     34 H591        -1.8010    -1.6790    -0.3640 hc         1 G74       0.049200
     35 H592        -0.8370    -1.5740    -1.8210 hc         1 G74       0.049200
     36 H49         -0.8920     1.2710    -1.5620 hn         1 G74       0.316500
     37 H61          1.0200    -2.8780    -0.6980 hc         1 G74       0.076700
     38 H731        -1.7360    -4.2080    -0.7280 hc         1 G74       0.057700
     39 H732        -0.4450    -4.3790    -1.9250 hc         1 G74       0.057700
     40 H711        -0.5860    -6.1970     0.1120 h1         1 G74       0.045200
     41 H712         1.0200    -5.5440    -0.3010 h1         1 G74       0.045200
     42 H69          0.0180    -4.9600     2.2430 hn         1 G74       0.328500
     43 H21C        -2.4950     4.3670     0.9900 hc         1 G74       0.049033
     44 H22C        -4.2190     4.5740     1.3540 hc         1 G74       0.049033
     45 H23C        -3.3620     3.1600     1.9660 hc         1 G74       0.049033
     46 H41C        -4.3340     3.5690    -2.2640 hc         1 G74       0.049033
     47 H42C        -4.9740     4.7180    -1.0730 hc         1 G74       0.049033
     48 H43C        -3.2490     4.7460    -1.4930 hc         1 G74       0.049033
     49 H61C        -4.9120     1.4760     0.8630 hc         1 G74       0.049033
     50 H62C        -5.9510     2.6950     0.1230 hc         1 G74       0.049033
     51 H63C        -5.1520     1.4850    -0.8990 hc         1 G74       0.049033
@<TRIPOS>BOND
     1     1     2 2   
     2     2     3 1   
     3     2     6 1   
     4     3     4 1   
     5     4     5 1   
     6     4    26 1   
     7     4    27 1   
     8     5    28 1   
     9     5    29 1   
    10     5    30 1   
    11     6     7 1   
    12     6    24 1   
    13     6    25 1   
    14     7     8 1   
    15     7    31 1   
    16     7    32 1   
    17     8     9 1   
    18     8    16 1   
    19     8    33 1   
    20     9    10 1   
    21     9    34 1   
    22     9    35 1   
    23    10    11 1   
    24    10    14 1   
    25    10    37 1   
    26    11    12 1   
    27    11    38 1   
    28    11    39 1   
    29    12    13 1   
    30    12    40 1   
    31    12    41 1   
    32    13    14 1   
    33    13    42 1   
    34    14    15 2   
    35    16    17 1   
    36    16    36 1   
    37    17    18 2   
    38    17    19 1   
    39    19    20 1   
    40    20    21 1   
    41    20    22 1   
    42    20    23 1   
    43    21    43 1   
    44    21    44 1   
    45    21    45 1   
    46    22    46 1   
    47    22    47 1   
    48    22    48 1   
    49    23    49 1   
    50    23    50 1   
    51    23    51 1   
@<TRIPOS>SUBSTRUCTURE
     1 G74         1 TEMP              0 ****  ****    0 ROOT
