@<TRIPOS>MOLECULE
G74
   51    51     1     0     0
SMALL
abcg2


@<TRIPOS>ATOM
      1 O88          4.1480    -0.2720    -0.7600 o          1 G74      -0.499000
      2 C84          3.5580     0.5650    -0.1210 c          1 G74       0.593100
      3 O86          4.1470     1.6300     0.4060 os         1 G74      -0.452100
      4 C3           5.5590     1.7930     0.2020 c3         1 G74       0.167600
      5 C5           5.9780     3.0800     0.8710 c3         1 G74      -0.097100
      6 C82          2.0840     0.5430     0.1840 c3         1 G74      -0.137400
      7 C63          1.3510    -0.6010    -0.4970 c3         1 G74      -0.075400
      8 C57         -0.1330    -0.6430    -0.1440 c3         1 G74       0.125700
      9 C59         -0.8690    -1.7950    -0.8400 c3         1 G74      -0.078400
     10 C61         -0.3490    -3.2050    -0.5860 c5         1 G74      -0.150700
     11 C73         -1.0930    -4.2770    -1.3860 c5         1 G74      -0.092400
     12 C71         -0.9540    -5.5380    -0.5340 c5         1 G74       0.100000
     13 N69         -0.8410    -4.9890     0.8010 ns         1 G74      -0.514900
     14 C65         -0.4720    -3.6990     0.8480 c          1 G74       0.562000
     15 O66         -0.2550    -3.0560     1.8650 o          1 G74      -0.549000
     16 N49         -0.7540     0.6180    -0.5030 ns         1 G74      -0.508900
     17 C39         -1.7860     1.1500     0.1850 c          1 G74       0.645100
     18 O47         -2.2200     0.7030     1.2280 o          1 G74      -0.540000
     19 O37         -2.2380     2.2400    -0.4390 os         1 G74      -0.484100
     20 C1          -3.3560     3.0210     0.0580 c3         1 G74       0.225000
     21 C2          -3.0460     3.6200     1.4250 c3         1 G74      -0.108433
     22 C4          -3.4770     4.1350    -0.9750 c3         1 G74      -0.108433
     23 C6          -4.6350     2.1910     0.0760 c3         1 G74      -0.108433
     24 H821         1.9630     0.4810     1.2710 hc         1 G74       0.081200
     25 H822         1.6630     1.5100    -0.1010 hc         1 G74       0.081200
     26 H31C         6.0930     0.9410     0.6270 h1         1 G74       0.047200
     27 H32C         5.7750     1.8240    -0.8680 h1         1 G74       0.047200
     28 H51C         5.4660     3.9410     0.4400 hc         1 G74       0.046367
     29 H52C         5.7830     3.0590     1.9430 hc         1 G74       0.046367
     30 H53C         7.0490     3.2230     0.7290 hc         1 G74       0.046367
     31 H631         1.4690    -0.5320    -1.5830 hc         1 G74       0.057200
     32 H632         1.8050    -1.5460    -0.1980 hc         1 G74       0.057200
     33 H57         -0.2330    -0.7590     0.9340 h1         1 G74       0.109700
     34 H591        -1.9240    -1.7490    -0.5540 hc         1 G74       0.049200
     35 H592        -0.8370    -1.6200    -1.9200 hc         1 G74       0.049200
     36 H49         -0.5510     0.9960    -1.4170 hn         1 G74       0.316500
     37 H61          0.7180    -3.2590    -0.8360 hc         1 G74       0.076700
     38 H731        -2.1470    -4.0050    -1.4740 hc         1 G74       0.057700
     39 H732        -0.6980    -4.4090    -2.3920 hc         1 G74       0.057700
     40 H711        -1.8150    -6.2000    -0.6150 h1         1 G74       0.045200
     41 H712        -0.0620    -6.1130    -0.8020 h1         1 G74       0.045200
     42 H69         -0.8760    -5.5640     1.6280 hn         1 G74       0.328500
     43 H21C        -2.0900     4.1450     1.4130 hc         1 G74       0.049033
     44 H22C        -3.8160     4.3500     1.6790 hc         1 G74       0.049033
     45 H23C        -3.0240     2.8710     2.2130 hc         1 G74       0.049033
     46 H41C        -3.6510     3.7340    -1.9740 hc         1 G74       0.049033
     47 H42C        -4.3160     4.7850    -0.7270 hc         1 G74       0.049033
     48 H43C        -2.5760     4.7490    -1.0020 hc         1 G74       0.049033
     49 H61C        -4.6130     1.4100     0.8330 hc         1 G74       0.049033
     50 H62C        -5.4820     2.8430     0.2920 hc         1 G74       0.049033
     51 H63C        -4.8150     1.7320    -0.8970 hc         1 G74       0.049033
@<TRIPOS>BOND
     1     1     2 2   
     2     2     3 1   
     3     2     6 1   
     4     3     4 1   
     5     4     5 1   
     6     4    26 1   
     7     4    27 1   
     8     5    28 1   
     9     5    29 1   
    10     5    30 1   
    11     6     7 1   
    12     6    24 1   
    13     6    25 1   
    14     7     8 1   
    15     7    31 1   
    16     7    32 1   
    17     8     9 1   
    18     8    16 1   
    19     8    33 1   
    20     9    10 1   
    21     9    34 1   
    22     9    35 1   
    23    10    11 1   
    24    10    14 1   
    25    10    37 1   
    26    11    12 1   
    27    11    38 1   
    28    11    39 1   
    29    12    13 1   
    30    12    40 1   
    31    12    41 1   
    32    13    14 1   
    33    13    42 1   
    34    14    15 2   
    35    16    17 1   
    36    16    36 1   
    37    17    18 2   
    38    17    19 1   
    39    19    20 1   
    40    20    21 1   
    41    20    22 1   
    42    20    23 1   
    43    21    43 1   
    44    21    44 1   
    45    21    45 1   
    46    22    46 1   
    47    22    47 1   
    48    22    48 1   
    49    23    49 1   
    50    23    50 1   
    51    23    51 1   
@<TRIPOS>SUBSTRUCTURE
     1 G74         1 TEMP              0 ****  ****    0 ROOT
