@<TRIPOS>MOLECULE
G75
   72    74     1     0     0
SMALL
No Charge or Current Charge


@<TRIPOS>ATOM
      1 O88          5.4720    -0.9440    -2.9210 o          1 G75      -0.494000
      2 C84          4.6620    -1.3470    -2.0970 c          1 G75       0.595100
      3 O86          4.6750    -2.6000    -1.5440 os         1 G75      -0.454100
      4 C3           5.6900    -3.5200    -1.9800 c3         1 G75       0.168600
      5 C5           5.4790    -4.8350    -1.2130 c3         1 G75      -0.097100
      6 C82          3.5450    -0.4820    -1.5130 c3         1 G75      -0.136400
      7 C63          4.0530     0.3610    -0.3130 c3         1 G75      -0.081400
      8 C57          2.9970     1.3310     0.2780 c3         1 G75       0.109700
      9 C59          3.5100     2.1540     1.4900 c3         1 G75      -0.077400
     10 C61          4.7060     3.1180     1.2210 c5         1 G75      -0.152700
     11 C65          4.3690     4.1390     0.1280 c          1 G75       0.563000
     12 O66          4.5090     4.0510    -1.0800 o          1 G75      -0.544000
     13 N69          4.0890     5.3120     0.7750 ns         1 G75      -0.517900
     14 C71          4.1210     5.2290     2.2340 c5         1 G75       0.101000
     15 C73          5.0710     4.0150     2.4360 c5         1 G75      -0.093400
     16 N49          1.7920     0.5940     0.6750 ns         1 G75      -0.512900
     17 C39          0.5840     0.6260     0.0060 c          1 G75       0.596100
     18 O47          0.4110     1.3220    -0.9870 o          1 G75      -0.592100
     19 C37         -0.5210    -0.2890     0.6060 c3         1 G75       0.044700
     20 C41         -0.1820    -1.7890     0.3920 c3         1 G75      -0.051100
     21 C51         -1.2340    -2.7380     0.9570 ca         1 G75      -0.087300
     22 C55         -2.2090    -3.3060     0.1130 ca         1 G75      -0.095500
     23 C11         -3.1840    -4.1720     0.6380 ca         1 G75      -0.109000
     24 C9          -3.1890    -4.4770     2.0090 ca         1 G75      -0.106000
     25 C7          -2.2180    -3.9140     2.8550 ca         1 G75      -0.109000
     26 C53         -1.2440    -3.0470     2.3310 ca         1 G75      -0.095500
     27 N33         -1.8430     0.0470     0.0300 ns         1 G75      -0.492900
     28 C31         -3.0260     0.0290     0.7100 c          1 G75       0.647100
     29 O35         -3.1510    -0.1820     1.9060 o          1 G75      -0.539000
     30 O1          -4.0320     0.3250    -0.1560 os         1 G75      -0.452100
     31 C1          -5.3690     0.3470     0.3670 c3         1 G75       0.226900
     32 C2          -6.3260     0.6660    -0.7740 ca         1 G75      -0.098300
     33 C4          -6.8320    -0.3690    -1.5860 ca         1 G75      -0.087000
     34 C6          -7.7170    -0.0760    -2.6390 ca         1 G75      -0.114500
     35 C8          -8.0990     1.2530    -2.8880 ca         1 G75      -0.100000
     36 C12         -7.5950     2.2900    -2.0830 ca         1 G75      -0.114500
     37 C10         -6.7110     1.9970    -1.0300 ca         1 G75      -0.087000
     38 H821         3.1690     0.1920    -2.2910 hc         1 G75       0.075700
     39 H822         2.7460    -1.1410    -1.1520 hc         1 G75       0.075700
     40 H31C         5.6110    -3.7090    -3.0590 h1         1 G75       0.047700
     41 H32C         6.6930    -3.1280    -1.7660 h1         1 G75       0.047700
     42 H51C         5.5680    -4.6700    -0.1330 hc         1 G75       0.046700
     43 H52C         4.4860    -5.2510    -1.4240 hc         1 G75       0.046700
     44 H53C         6.2320    -5.5730    -1.5110 hc         1 G75       0.046700
     45 H631         4.4080    -0.3140     0.4760 hc         1 G75       0.064200
     46 H632         4.9220     0.9390    -0.6490 hc         1 G75       0.064200
     47 H57          2.7210     2.0420    -0.5130 h1         1 G75       0.100700
     48 H591         2.6640     2.7350     1.8780 hc         1 G75       0.047700
     49 H592         3.7850     1.4570     2.2920 hc         1 G75       0.047700
     50 H49          1.8460    -0.0020     1.4920 hn         1 G75       0.311500
     51 H61          5.5490     2.5050     0.8880 hc         1 G75       0.087700
     52 H731         4.9320     3.5210     3.4050 hc         1 G75       0.058700
     53 H732         6.1180     4.3350     2.3810 hc         1 G75       0.058700
     54 H69          3.9120     6.1450     0.2270 hn         1 G75       0.329500
     55 H711         4.5130     6.1410     2.7050 h1         1 G75       0.044200
     56 H712         3.1210     5.0320     2.6440 h1         1 G75       0.044200
     57 H37         -0.5460    -0.0850     1.6850 h1         1 G75       0.088700
     58 H411        -0.0500    -1.9720    -0.6820 hc         1 G75       0.059200
     59 H412         0.7900    -2.0100     0.8520 hc         1 G75       0.059200
     60 H33         -1.9010     0.2920    -0.9510 hn         1 G75       0.347500
     61 H55         -2.2160    -3.0720    -0.9500 ha         1 G75       0.111000
     62 H53         -0.4990    -2.6130     2.9940 ha         1 G75       0.111000
     63 H11         -3.9360    -4.6050    -0.0180 ha         1 G75       0.111500
     64 H9          -3.9440    -5.1460     2.4160 ha         1 G75       0.112000
     65 H7          -2.2220    -4.1490     3.9180 ha         1 G75       0.111500
     66 H11C        -5.6320    -0.6270     0.8020 h1         1 G75       0.056200
     67 H12C        -5.4670     1.1060     1.1550 h1         1 G75       0.056200
     68 H4          -6.5390    -1.4000    -1.4010 ha         1 G75       0.114500
     69 H10         -6.3230     2.8060    -0.4130 ha         1 G75       0.114500
     70 H6          -8.1050    -0.8790    -3.2620 ha         1 G75       0.113500
     71 H8          -8.7830     1.4800    -3.7030 ha         1 G75       0.113000
     72 H12         -7.8890     3.3190    -2.2760 ha         1 G75       0.113500
@<TRIPOS>BOND
     1     1     2 2   
     2     2     3 1   
     3     2     6 1   
     4     3     4 1   
     5     4     5 1   
     6     4    40 1   
     7     4    41 1   
     8     5    42 1   
     9     5    43 1   
    10     5    44 1   
    11     6     7 1   
    12     6    38 1   
    13     6    39 1   
    14     7     8 1   
    15     7    45 1   
    16     7    46 1   
    17     8     9 1   
    18     8    16 1   
    19     8    47 1   
    20     9    10 1   
    21     9    48 1   
    22     9    49 1   
    23    10    11 1   
    24    10    15 1   
    25    10    51 1   
    26    11    12 2   
    27    11    13 1   
    28    13    14 1   
    29    13    54 1   
    30    14    15 1   
    31    14    55 1   
    32    14    56 1   
    33    15    52 1   
    34    15    53 1   
    35    16    17 1   
    36    16    50 1   
    37    17    18 2   
    38    17    19 1   
    39    19    20 1   
    40    19    27 1   
    41    19    57 1   
    42    20    21 1   
    43    20    58 1   
    44    20    59 1   
    45    21    22 ar  
    46    21    26 ar  
    47    22    23 ar  
    48    22    61 1   
    49    23    24 ar  
    50    23    63 1   
    51    24    25 ar  
    52    24    64 1   
    53    25    26 ar  
    54    25    65 1   
    55    26    62 1   
    56    27    28 1   
    57    27    60 1   
    58    28    29 2   
    59    28    30 1   
    60    30    31 1   
    61    31    32 1   
    62    31    66 1   
    63    31    67 1   
    64    32    33 ar  
    65    32    37 ar  
    66    33    34 ar  
    67    33    68 1   
    68    34    35 ar  
    69    34    70 1   
    70    35    36 ar  
    71    35    71 1   
    72    36    37 ar  
    73    36    72 1   
    74    37    69 1   
@<TRIPOS>SUBSTRUCTURE
     1 G75         1 TEMP              0 ****  ****    0 ROOT
