@<TRIPOS>MOLECULE
G75
   72    74     1     0     0
SMALL
abcg2


@<TRIPOS>ATOM
      1 O88          6.2270    -1.4950    -0.4560 o          1 G75      -0.494000
      2 C84          5.0910    -1.7320    -0.7900 c          1 G75       0.595100
      3 O86          4.7320    -2.8240    -1.4450 os         1 G75      -0.454100
      4 C3           5.7440    -3.7770    -1.8010 c3         1 G75       0.168600
      5 C5           5.0730    -4.9090    -2.5380 c3         1 G75      -0.097100
      6 C82          3.9090    -0.8330    -0.5410 c3         1 G75      -0.136400
      7 C63          4.2240     0.3450     0.3670 c3         1 G75      -0.081400
      8 C57          3.0650     1.3350     0.4450 c3         1 G75       0.109700
      9 C59          3.3200     2.4820     1.4270 c3         1 G75      -0.077400
     10 C61          4.6030     3.2900     1.2080 c5         1 G75      -0.152700
     11 C65          4.6120     3.9460    -0.1660 c          1 G75       0.563000
     12 O66          4.8380     3.4060    -1.2320 o          1 G75      -0.544000
     13 N69          4.2950     5.2470     0.0070 ns         1 G75      -0.517900
     14 C71          4.0330     5.6310     1.3740 c5         1 G75       0.101000
     15 C73          4.6860     4.4880     2.1570 c5         1 G75      -0.093400
     16 N49          1.8320     0.6710     0.8330 ns         1 G75      -0.512900
     17 C39          0.7610     0.5240     0.0300 c          1 G75       0.596100
     18 O47          0.6940     0.9420    -1.1090 o          1 G75      -0.592100
     19 C37         -0.3810    -0.2910     0.6280 c3         1 G75       0.044700
     20 C41         -0.1740    -1.7760     0.2410 c3         1 G75      -0.051100
     21 C51         -1.3760    -2.6110     0.5710 ca         1 G75      -0.087300
     22 C55         -2.3680    -2.8250    -0.3800 ca         1 G75      -0.095500
     23 C11         -3.5200    -3.5290    -0.0610 ca         1 G75      -0.109000
     24 C9          -3.6950    -4.0320     1.2200 ca         1 G75      -0.106000
     25 C7          -2.7080    -3.8320     2.1740 ca         1 G75      -0.109000
     26 C53         -1.5600    -3.1260     1.8500 ca         1 G75      -0.095500
     27 N33         -1.6230     0.2280     0.1340 ns         1 G75      -0.492900
     28 C31         -2.7430     0.2340     0.8920 c          1 G75       0.647100
     29 O35         -2.7880     0.0010     2.0750 o          1 G75      -0.539000
     30 O1          -3.8050     0.5540     0.1410 os         1 G75      -0.452100
     31 C1          -5.0730     0.5270     0.7900 c3         1 G75       0.226900
     32 C2          -6.1250     0.5530    -0.2770 ca         1 G75      -0.098300
     33 C4          -6.2610    -0.5270    -1.1450 ca         1 G75      -0.087000
     34 C6          -7.2290    -0.5170    -2.1350 ca         1 G75      -0.114500
     35 C8          -8.0770     0.5750    -2.2690 ca         1 G75      -0.100000
     36 C12         -7.9490     1.6550    -1.4100 ca         1 G75      -0.114500
     37 C10         -6.9740     1.6420    -0.4210 ca         1 G75      -0.087000
     38 H821         3.5440    -0.4840    -1.5130 hc         1 G75       0.075700
     39 H822         3.1030    -1.4420    -0.1250 hc         1 G75       0.075700
     40 H31C         6.4980    -3.2970    -2.4270 h1         1 G75       0.047700
     41 H32C         6.2410    -4.1410    -0.8990 h1         1 G75       0.047700
     42 H51C         4.3340    -5.4090    -1.9130 hc         1 G75       0.046700
     43 H52C         4.5860    -4.5620    -3.4480 hc         1 G75       0.046700
     44 H53C         5.8250    -5.6440    -2.8210 hc         1 G75       0.046700
     45 H631         4.4810    -0.0150     1.3680 hc         1 G75       0.064200
     46 H632         5.0990     0.8710    -0.0140 hc         1 G75       0.064200
     47 H57          2.8870     1.7410    -0.5510 h1         1 G75       0.100700
     48 H591         2.4500     3.1460     1.4030 hc         1 G75       0.047700
     49 H592         3.3620     2.0780     2.4440 hc         1 G75       0.047700
     50 H49          1.7750     0.3190     1.7750 hn         1 G75       0.311500
     51 H61          5.4710     2.6380     1.3110 hc         1 G75       0.087700
     52 H731         4.2010     4.3110     3.1170 hc         1 G75       0.058700
     53 H732         5.7310     4.7330     2.3560 hc         1 G75       0.058700
     54 H69          4.1120     5.8460    -0.7800 hn         1 G75       0.329500
     55 H711         4.4770     6.5990     1.6090 h1         1 G75       0.044200
     56 H712         2.9590     5.7050     1.5740 h1         1 G75       0.044200
     57 H37         -0.4010    -0.2060     1.7170 h1         1 G75       0.088700
     58 H411         0.0370    -1.8320    -0.8300 hc         1 G75       0.059200
     59 H412         0.7140    -2.1560     0.7550 hc         1 G75       0.059200
     60 H33         -1.6840     0.4400    -0.8490 hn         1 G75       0.347500
     61 H55         -2.2390    -2.4410    -1.3850 ha         1 G75       0.111000
     62 H53         -0.8010    -2.9640     2.6050 ha         1 G75       0.111000
     63 H11         -4.2790    -3.6920    -0.8160 ha         1 G75       0.111500
     64 H9          -4.5920    -4.5830     1.4720 ha         1 G75       0.112000
     65 H7          -2.8340    -4.2240     3.1750 ha         1 G75       0.111500
     66 H11C        -5.1620    -0.3760     1.3980 h1         1 G75       0.056200
     67 H12C        -5.1760     1.3840     1.4610 h1         1 G75       0.056200
     68 H4          -5.6040    -1.3830    -1.0390 ha         1 G75       0.114500
     69 H10         -6.8730     2.4920     0.2440 ha         1 G75       0.114500
     70 H6          -7.3270    -1.3640    -2.8020 ha         1 G75       0.113500
     71 H8          -8.8340     0.5830    -3.0420 ha         1 G75       0.113000
     72 H12         -8.6030     2.5100    -1.5100 ha         1 G75       0.113500
@<TRIPOS>BOND
     1     1     2 2   
     2     2     3 1   
     3     2     6 1   
     4     3     4 1   
     5     4     5 1   
     6     4    40 1   
     7     4    41 1   
     8     5    42 1   
     9     5    43 1   
    10     5    44 1   
    11     6     7 1   
    12     6    38 1   
    13     6    39 1   
    14     7     8 1   
    15     7    45 1   
    16     7    46 1   
    17     8     9 1   
    18     8    16 1   
    19     8    47 1   
    20     9    10 1   
    21     9    48 1   
    22     9    49 1   
    23    10    11 1   
    24    10    15 1   
    25    10    51 1   
    26    11    12 2   
    27    11    13 1   
    28    13    14 1   
    29    13    54 1   
    30    14    15 1   
    31    14    55 1   
    32    14    56 1   
    33    15    52 1   
    34    15    53 1   
    35    16    17 1   
    36    16    50 1   
    37    17    18 2   
    38    17    19 1   
    39    19    20 1   
    40    19    27 1   
    41    19    57 1   
    42    20    21 1   
    43    20    58 1   
    44    20    59 1   
    45    21    22 ar  
    46    21    26 ar  
    47    22    23 ar  
    48    22    61 1   
    49    23    24 ar  
    50    23    63 1   
    51    24    25 ar  
    52    24    64 1   
    53    25    26 ar  
    54    25    65 1   
    55    26    62 1   
    56    27    28 1   
    57    27    60 1   
    58    28    29 2   
    59    28    30 1   
    60    30    31 1   
    61    31    32 1   
    62    31    66 1   
    63    31    67 1   
    64    32    33 ar  
    65    32    37 ar  
    66    33    34 ar  
    67    33    68 1   
    68    34    35 ar  
    69    34    70 1   
    70    35    36 ar  
    71    35    71 1   
    72    36    37 ar  
    73    36    72 1   
    74    37    69 1   
@<TRIPOS>SUBSTRUCTURE
     1 G75         1 TEMP              0 ****  ****    0 ROOT
