@<TRIPOS>MOLECULE
G76
   43    43     1     0     0
SMALL
No Charge or Current Charge


@<TRIPOS>ATOM
      1 C01          9.8470     0.4660     0.0350 c3         1 G76      -0.086100
      2 C02          8.5070     0.0460    -0.6000 c3         1 G76      -0.076400
      3 C03          7.3060     0.2090     0.3570 c3         1 G76      -0.076400
      4 C04          5.9640    -0.2120    -0.2800 c3         1 G76      -0.075400
      5 C05          4.7630    -0.0500     0.6770 c3         1 G76      -0.072400
      6 C06          3.4220    -0.4720     0.0390 c3         1 G76      -0.104400
      7 C07          2.2230    -0.3100     0.9970 c3         1 G76       0.089600
      8 N08          0.9480    -0.7180     0.3870 na         1 G76      -0.051700
      9 C09          0.4010    -2.0020     0.4170 cc         1 G76      -0.295000
     10 C10         -0.7980    -1.9650    -0.2720 cd         1 G76      -0.058000
     11 N11         -0.9620    -0.6710    -0.7150 na         1 G76       0.102000
     12 C12          0.0940     0.1050    -0.3260 cc         1 G76      -0.001300
     13 C13         -2.0590    -0.2280    -1.6020 c3         1 G76       0.142600
     14 C14         -3.3290     0.3500    -0.9370 c3         1 G76      -0.722700
     15 P15         -4.1960    -0.7720     0.1390 p5         1 G76       1.344500
     16 O16         -3.5990    -0.8650     1.4990 o          1 G76      -0.945167
     17 O17         -5.6350    -0.3920     0.2090 o          1 G76      -0.945167
     18 O18         -4.1200    -2.1060    -0.5230 o          1 G76      -0.945167
     19 P19         -3.0840     1.9110    -0.1180 p5         1 G76       1.344500
     20 O20         -2.5140     2.8070    -1.1640 o          1 G76      -0.945167
     21 O21         -4.3690     2.4950     0.3580 o          1 G76      -0.945167
     22 O22         -2.0970     1.8120     0.9910 o          1 G76      -0.945167
     23 H01          9.8200     1.5200     0.3350 hc         1 G76       0.023033
     24 H01A        10.0630    -0.1420     0.9220 hc         1 G76       0.023033
     25 H01B        10.6670     0.3330    -0.6800 hc         1 G76       0.023033
     26 H02          8.3380     0.6470    -1.5020 hc         1 G76       0.035200
     27 H02A         8.5780    -1.0010    -0.9210 hc         1 G76       0.035200
     28 H03          7.4810    -0.3920     1.2590 hc         1 G76       0.034200
     29 H03A         7.2400     1.2560     0.6770 hc         1 G76       0.034200
     30 H04          5.7900     0.3880    -1.1820 hc         1 G76       0.037200
     31 H04A         6.0300    -1.2600    -0.6000 hc         1 G76       0.037200
     32 H05          4.9380    -0.6500     1.5790 hc         1 G76       0.035200
     33 H05A         4.6960     0.9980     0.9970 hc         1 G76       0.035200
     34 H06          3.2440     0.1290    -0.8620 hc         1 G76       0.047200
     35 H06A         3.4860    -1.5190    -0.2800 hc         1 G76       0.047200
     36 H07          2.3880    -0.9180     1.8960 h1         1 G76       0.063700
     37 H07A         2.1420     0.7380     1.3110 h1         1 G76       0.063700
     38 H09          0.8940    -2.8280     0.9160 h4         1 G76       0.126000
     39 H10         -1.5260    -2.7440    -0.4770 h4         1 G76       0.238000
     40 H12          0.2240     1.1600    -0.5340 h5         1 G76       0.225000
     41 H13         -1.6460     0.5200    -2.2900 h1         1 G76       0.019700
     42 H13A        -2.3460    -1.0840    -2.2270 h1         1 G76       0.019700
     43 H14         -4.0450     0.5740    -1.7280 hc         1 G76       0.064700
@<TRIPOS>BOND
     1     1     2 1   
     2     1    23 1   
     3     1    24 1   
     4     1    25 1   
     5     2     3 1   
     6     2    26 1   
     7     2    27 1   
     8     3     4 1   
     9     3    28 1   
    10     3    29 1   
    11     4     5 1   
    12     4    30 1   
    13     4    31 1   
    14     5     6 1   
    15     5    32 1   
    16     5    33 1   
    17     6     7 1   
    18     6    34 1   
    19     6    35 1   
    20     7     8 1   
    21     7    36 1   
    22     7    37 1   
    23     8     9 1   
    24     8    12 2   
    25     9    10 2   
    26     9    38 1   
    27    10    11 1   
    28    10    39 1   
    29    11    12 1   
    30    11    13 1   
    31    12    40 1   
    32    13    14 1   
    33    13    41 1   
    34    13    42 1   
    35    14    15 1   
    36    14    19 1   
    37    14    43 1   
    38    15    16 1   
    39    15    17 1   
    40    15    18 1   
    41    19    20 1   
    42    19    21 1   
    43    19    22 1   
@<TRIPOS>SUBSTRUCTURE
     1 G76         1 TEMP              0 ****  ****    0 ROOT
