@<TRIPOS>MOLECULE
G76
   43    43     1     0     0
SMALL
bcc


@<TRIPOS>ATOM
      1 C01          9.6290     0.4660     0.0270 c3         1 G76      -0.086100
      2 C02          8.2870     0.2220    -0.6500 c3         1 G76      -0.076400
      3 C03          7.1230     0.2090     0.3340 c3         1 G76      -0.076400
      4 C04          5.7750    -0.0430    -0.3300 c3         1 G76      -0.075400
      5 C05          4.6180    -0.0520     0.6620 c3         1 G76      -0.072400
      6 C06          3.2820    -0.3770     0.0070 c3         1 G76      -0.104400
      7 C07          2.1420    -0.3440     1.0140 c3         1 G76       0.060300
      8 N08          0.8820    -0.7830     0.4380 na         1 G76      -0.073100
      9 C09          0.2340    -1.9710     0.7010 cc         1 G76      -0.262300
     10 C10         -0.8860    -1.9830    -0.0580 cd         1 G76      -0.025300
     11 N11         -0.8840    -0.8250    -0.7880 na         1 G76       0.029900
     12 C12          0.1640    -0.1020    -0.4430 cc         1 G76       0.031400
     13 C13         -1.9530    -0.3530    -1.6630 c3         1 G76       0.113300
     14 C14         -3.0650     0.3530    -0.9060 c3         1 G76      -0.407100
     15 P15         -4.1060    -0.8310     0.1040 p5         1 G76       1.186700
     16 O16         -3.5290    -0.9150     1.5190 o          1 G76      -0.945167
     17 O17         -5.5330    -0.2630     0.0550 o          1 G76      -0.945167
     18 O18         -3.9960    -2.1790    -0.6550 o          1 G76      -0.945167
     19 P19         -2.3980     1.9060    -0.1110 p5         1 G76       1.186700
     20 O20         -1.7130     2.6400    -1.2860 o          1 G76      -0.945167
     21 O21         -3.6110     2.6630     0.4440 o          1 G76      -0.945167
     22 O22         -1.3810     1.4960     0.9670 o          1 G76      -0.945167
     23 H01          9.6410     1.4300     0.5400 hc         1 G76       0.023033
     24 H01A         9.8400    -0.3040     0.7720 hc         1 G76       0.023033
     25 H01B        10.4490     0.4640    -0.6920 hc         1 G76       0.023033
     26 H02          8.1140     0.9940    -1.4060 hc         1 G76       0.035200
     27 H02A         8.3150    -0.7300    -1.1900 hc         1 G76       0.035200
     28 H03          7.3010    -0.5600     1.0930 hc         1 G76       0.034200
     29 H03A         7.0930     1.1640     0.8710 hc         1 G76       0.034200
     30 H04          5.5950     0.7220    -1.0920 hc         1 G76       0.037200
     31 H04A         5.8060    -1.0010    -0.8600 hc         1 G76       0.037200
     32 H05          4.8200    -0.7880     1.4480 hc         1 G76       0.035200
     33 H05A         4.5600     0.9210     1.1610 hc         1 G76       0.035200
     34 H06          3.0810     0.3370    -0.7970 hc         1 G76       0.047200
     35 H06A         3.3260    -1.3690    -0.4520 hc         1 G76       0.047200
     36 H07          2.3550    -1.0060     1.8530 h1         1 G76       0.063700
     37 H07A         2.0040     0.6590     1.4180 h1         1 G76       0.063700
     38 H09          0.6250    -2.6910     1.3990 h4         1 G76       0.144000
     39 H10         -1.7030    -2.6780    -0.1400 h4         1 G76       0.256000
     40 H12          0.4090     0.8620    -0.8520 h5         1 G76       0.243000
     41 H13         -1.4840     0.3210    -2.3790 h1         1 G76       0.019700
     42 H13A        -2.3240    -1.2250    -2.1980 h1         1 G76       0.019700
     43 H14         -3.7350     0.7060    -1.7020 hc         1 G76       0.064700
@<TRIPOS>BOND
     1     1     2 1   
     2     1    23 1   
     3     1    24 1   
     4     1    25 1   
     5     2     3 1   
     6     2    26 1   
     7     2    27 1   
     8     3     4 1   
     9     3    28 1   
    10     3    29 1   
    11     4     5 1   
    12     4    30 1   
    13     4    31 1   
    14     5     6 1   
    15     5    32 1   
    16     5    33 1   
    17     6     7 1   
    18     6    34 1   
    19     6    35 1   
    20     7     8 1   
    21     7    36 1   
    22     7    37 1   
    23     8     9 1   
    24     8    12 2   
    25     9    10 2   
    26     9    38 1   
    27    10    11 1   
    28    10    39 1   
    29    11    12 1   
    30    11    13 1   
    31    12    40 1   
    32    13    14 1   
    33    13    41 1   
    34    13    42 1   
    35    14    15 1   
    36    14    19 1   
    37    14    43 1   
    38    15    16 1   
    39    15    17 1   
    40    15    18 1   
    41    19    20 1   
    42    19    21 1   
    43    19    22 1   
@<TRIPOS>SUBSTRUCTURE
     1 G76         1 TEMP              0 ****  ****    0 ROOT
