@<TRIPOS>MOLECULE
G77
   88    94     1     0     0
SMALL
No Charge or Current Charge


@<TRIPOS>ATOM
      1 N54          8.8440    16.6010    19.7030 nu         1 G77      -0.854400
      2 C55          8.1570    15.6670    18.8590 cx         1 G77       0.144500
      3 C56          6.6510    15.7240    18.8440 cx         1 G77      -0.125400
      4 C57          7.4370    16.2210    17.6560 cx         1 G77      -0.125400
      5 S51         11.0840    16.8150    18.0670 ss         1 G77      -0.007200
      6 N52         10.5050    17.9380    20.4630 nc         1 G77      -0.651100
      7 C53         10.0710    17.1330    19.5000 cd         1 G77       0.669100
      8 C2          11.7650    18.3650    20.0510 ca         1 G77       0.205400
      9 C3          12.2350    17.8900    18.8380 ca         1 G77      -0.236000
     10 C4          13.4880    18.2500    18.3230 ca         1 G77       0.042000
     11 C5          14.2910    19.1350    19.0700 ca         1 G77      -0.330500
     12 C6          13.8300    19.6240    20.3150 ca         1 G77      -0.010000
     13 C7          12.5660    19.2380    20.8020 ca         1 G77      -0.106000
     14 S8          15.9000    19.6310    18.4360 sy         1 G77       1.160600
     15 O9          16.7420    20.1130    19.5350 o          1 G77      -0.535000
     16 O10         16.4030    18.6080    17.5130 o          1 G77      -0.535000
     17 N11         15.5250    21.0030    17.4830 n3         1 G77      -0.721500
     18 C12         14.7190    20.6710    16.2720 c3         1 G77       0.196800
     19 C13         14.6740    21.7350    15.1430 c3         1 G77      -0.059700
     20 C14         16.0820    22.0710    14.5940 c3         1 G77      -0.091600
     21 C15         13.7380    21.2810    13.9990 c3         1 G77      -0.091600
     22 C16         14.9950    22.1600    18.2680 c3         1 G77       0.172800
     23 C17         15.6390    23.5420    17.9340 c3         1 G77       0.155300
     24 O18         14.9880    24.5900    18.6860 oh         1 G77      -0.663000
     25 C19         17.1810    23.5800    18.1710 c3         1 G77       0.140700
     26 N20         17.7710    24.7530    17.5140 ns         1 G77      -0.499900
     27 C21         18.9250    24.7400    16.7890 c          1 G77       0.645100
     28 O22         19.5710    23.7440    16.5060 o          1 G77      -0.537000
     29 O23         19.2460    26.0200    16.4590 os         1 G77      -0.471100
     30 C32         17.6180    23.5260    19.6610 c3         1 G77      -0.048100
     31 C33         19.8590    24.6440    20.1370 ca         1 G77      -0.161500
     32 C34         21.2570    24.5980    20.2500 ca         1 G77       0.195000
     33 C35         21.9460    23.3940    20.0510 ca         1 G77      -0.201000
     34 C36         21.2270    22.2320    19.7400 ca         1 G77       0.195000
     35 C37         19.8280    22.2690    19.6270 ca         1 G77      -0.161500
     36 C38         19.1330    23.4780    19.8230 ca         1 G77      -0.030300
     37 F62         21.8850    21.0690    19.5460 f          1 G77      -0.175000
     38 C24         20.5110    26.3200    15.8390 c6         1 G77       0.207300
     39 C25         21.6860    26.1270    16.8370 c6         1 G77      -0.131400
     40 C26         22.9640    27.2370    14.8430 c5         1 G77      -0.110400
     41 C27         21.9090    28.3860    14.9440 c5         1 G77      -0.126700
     42 C28         22.2730    29.0540    16.3120 c5         1 G77       0.372300
     43 O29         21.0450    29.1330    17.0660 os         1 G77      -0.459000
     44 C30         19.9490    28.8670    16.1700 c5         1 G77       0.165600
     45 C31         20.4950    27.7590    15.2350 c5         1 G77      -0.094700
     46 C41         22.9900    26.8180    16.3380 c5         1 G77       0.169300
     47 O42         23.1450    28.1070    16.9730 os         1 G77      -0.456000
     48 H1           8.4620    16.8970    20.5990 hn         1 G77       0.516000
     49 H2           8.6320    14.6870    18.7610 h1         1 G77       0.094700
     50 H3           6.1560    16.4630    19.4690 hc         1 G77       0.085200
     51 H4           6.1140    14.7850    18.7390 hc         1 G77       0.085200
     52 H5           7.4310    15.6170    16.7520 hc         1 G77       0.085200
     53 H6           7.4770    17.2940    17.4860 hc         1 G77       0.085200
     54 H7          13.8220    17.8540    17.3650 ha         1 G77       0.136000
     55 H8          14.4440    20.2990    20.9090 ha         1 G77       0.137000
     56 H9          12.2100    19.6140    21.7570 ha         1 G77       0.137000
     57 H10         13.6860    20.4490    16.5740 h1         1 G77       0.052700
     58 H11         15.1050    19.7570    15.8020 h1         1 G77       0.052700
     59 H12         14.2300    22.6500    15.5480 hc         1 G77       0.041700
     60 H13         16.7510    22.4180    15.3890 hc         1 G77       0.040367
     61 H14         16.5390    21.1880    14.1320 hc         1 G77       0.040367
     62 H15         16.0240    22.8620    13.8360 hc         1 G77       0.040367
     63 H16         12.7260    21.0900    14.3780 hc         1 G77       0.040367
     64 H17         13.6680    22.0550    13.2250 hc         1 G77       0.040367
     65 H18         14.1090    20.3610    13.5310 hc         1 G77       0.040367
     66 H19         13.9090    22.2350    18.1250 h1         1 G77       0.054700
     67 H20         15.1350    22.0050    19.3440 h1         1 G77       0.054700
     68 H21         15.4870    23.7350    16.8680 h1         1 G77       0.055700
     69 H22         14.0940    24.7200    18.2990 ho         1 G77       0.445000
     70 H23         17.5920    22.6850    17.6830 h1         1 G77       0.103700
     71 H24         17.3500    25.6590    17.6670 hn         1 G77       0.328500
     72 H25         17.2130    24.3970    20.1890 hc         1 G77       0.067700
     73 H26         17.1740    22.6510    20.1470 hc         1 G77       0.067700
     74 H27         19.3440    25.5900    20.2840 ha         1 G77       0.148000
     75 H28         23.0280    23.3620    20.1360 ha         1 G77       0.146000
     76 H29         19.2880    21.3590    19.3790 ha         1 G77       0.148000
     77 H30         20.6560    25.6190    15.0030 h1         1 G77       0.060700
     78 H31         21.4130    26.5130    17.8280 hc         1 G77       0.076700
     79 H32         21.8800    25.0550    16.9680 hc         1 G77       0.076700
     80 H34         23.9420    27.6110    14.5190 hc         1 G77       0.064700
     81 H35         21.9180    29.0890    14.1020 hc         1 G77       0.078700
     82 H36         22.7510    30.0380    16.2030 h2         1 G77       0.092700
     83 H37         19.7140    29.7840    15.6120 h1         1 G77       0.052700
     84 H38         19.0590    28.5670    16.7390 h1         1 G77       0.052700
     85 H39         19.8920    27.6850    14.3240 hc         1 G77       0.068700
     86 H40         23.8570    26.1880    16.5870 h1         1 G77       0.085700
     87 F61         21.9440    25.7210    20.5470 f          1 G77      -0.175000
     88 H33         22.6830    26.4280    14.1580 hc         1 G77       0.064700
@<TRIPOS>BOND
     1     1     2 1   
     2     1     7 1   
     3     1    48 1   
     4     2     3 1   
     5     2     4 1   
     6     2    49 1   
     7     3     4 1   
     8     3    50 1   
     9     3    51 1   
    10     4    52 1   
    11     4    53 1   
    12     5     7 1   
    13     5     9 1   
    14     6     7 2   
    15     6     8 1   
    16     8     9 ar  
    17     8    13 ar  
    18     9    10 ar  
    19    10    11 ar  
    20    10    54 1   
    21    11    12 ar  
    22    11    14 1   
    23    12    13 ar  
    24    12    55 1   
    25    13    56 1   
    26    14    15 2   
    27    14    16 2   
    28    14    17 1   
    29    17    18 1   
    30    17    22 1   
    31    18    19 1   
    32    18    57 1   
    33    18    58 1   
    34    19    20 1   
    35    19    21 1   
    36    19    59 1   
    37    20    60 1   
    38    20    61 1   
    39    20    62 1   
    40    21    63 1   
    41    21    64 1   
    42    21    65 1   
    43    22    23 1   
    44    22    66 1   
    45    22    67 1   
    46    23    24 1   
    47    23    25 1   
    48    23    68 1   
    49    24    69 1   
    50    25    26 1   
    51    25    30 1   
    52    25    70 1   
    53    26    27 1   
    54    26    71 1   
    55    27    28 2   
    56    27    29 1   
    57    29    38 1   
    58    30    36 1   
    59    30    72 1   
    60    30    73 1   
    61    31    32 ar  
    62    31    36 ar  
    63    31    74 1   
    64    32    33 ar  
    65    32    87 1   
    66    33    34 ar  
    67    33    75 1   
    68    34    35 ar  
    69    34    37 1   
    70    35    36 ar  
    71    35    76 1   
    72    38    39 1   
    73    38    45 1   
    74    38    77 1   
    75    39    46 1   
    76    39    78 1   
    77    39    79 1   
    78    40    41 1   
    79    40    46 1   
    80    40    80 1   
    81    40    88 1   
    82    41    42 1   
    83    41    45 1   
    84    41    81 1   
    85    42    43 1   
    86    42    47 1   
    87    42    82 1   
    88    43    44 1   
    89    44    45 1   
    90    44    83 1   
    91    44    84 1   
    92    45    85 1   
    93    46    47 1   
    94    46    86 1   
@<TRIPOS>SUBSTRUCTURE
     1 G77         1 TEMP              0 ****  ****    0 ROOT
