@<TRIPOS>MOLECULE
G77
   88    94     1     0     0
SMALL
bcc


@<TRIPOS>ATOM
      1 N54          9.2340    16.3780    19.9690 nu         1 G77      -0.799200
      2 C55          8.6130    15.5610    18.9810 cx         1 G77       0.144500
      3 C56          7.1280    15.6410    18.8470 cx         1 G77      -0.125400
      4 C57          7.9970    16.2260    17.7820 cx         1 G77      -0.125400
      5 S51         11.1370    16.9560    18.1760 ss         1 G77      -0.134100
      6 N52         11.0180    17.7060    20.6730 nc         1 G77      -0.651100
      7 C53         10.3870    17.0190    19.7690 cd         1 G77       0.669100
      8 C2          12.1530    18.2550    20.1550 ca         1 G77       0.205400
      9 C3          12.4090    17.9650    18.7990 ca         1 G77      -0.109100
     10 C4          13.5210    18.4450    18.1390 ca         1 G77       0.024000
     11 C5          14.3960    19.2520    18.8590 ca         1 G77      -0.330500
     12 C6          14.1690    19.5560    20.2040 ca         1 G77      -0.028000
     13 C7          13.0550    19.0600    20.8520 ca         1 G77      -0.124000
     14 S8          15.7800    19.9630    18.0210 sy         1 G77       1.302200
     15 O9          16.7240    20.4260    19.0260 o          1 G77      -0.605800
     16 O10         16.2370    19.0250    17.0100 o          1 G77      -0.605800
     17 N11         15.2100    21.3080    17.2350 n3         1 G77      -0.721500
     18 C12         14.3620    21.0630    16.0620 c3         1 G77       0.196800
     19 C13         14.5550    22.0830    14.9430 c3         1 G77      -0.059700
     20 C14         15.9930    22.0990    14.4410 c3         1 G77      -0.091600
     21 C15         13.5840    21.7470    13.8140 c3         1 G77      -0.091600
     22 C16         14.7930    22.4270    18.0870 c3         1 G77       0.172800
     23 C17         15.5700    23.7200    17.8200 c3         1 G77       0.132100
     24 O18         14.9810    24.7830    18.5310 oh         1 G77      -0.600800
     25 C19         17.0490    23.6700    18.2030 c3         1 G77       0.140700
     26 N20         17.7110    24.8290    17.6460 ns         1 G77      -0.566900
     27 C21         18.8650    24.7690    16.9570 c          1 G77       0.761100
     28 O22         19.4000    23.7550    16.5580 o          1 G77      -0.586000
     29 O23         19.3360    26.0050    16.7470 os         1 G77      -0.447900
     30 C32         17.2990    23.6050    19.7200 c3         1 G77      -0.048100
     31 C33         19.5200    24.6320    20.2940 ca         1 G77      -0.179500
     32 C34         20.8770    24.5030    20.5180 ca         1 G77       0.159900
     33 C35         21.5330    23.2880    20.4800 ca         1 G77      -0.219000
     34 C36         20.7550    22.1770    20.2070 ca         1 G77       0.159900
     35 C37         19.3980    22.2510    19.9730 ca         1 G77      -0.179500
     36 C38         18.7680    23.4930    20.0180 ca         1 G77      -0.030300
     37 F62         21.3510    20.9770    20.1700 f          1 G77      -0.139900
     38 C24         20.5450    26.1700    16.0070 c6         1 G77       0.184100
     39 C25         21.7770    25.9440    16.8840 c6         1 G77      -0.131400
     40 C26         22.8590    26.7840    14.7720 c5         1 G77      -0.110400
     41 C27         21.8830    27.9530    14.8240 c5         1 G77      -0.126700
     42 C28         22.4410    28.7860    15.9870 c5         1 G77       0.325900
     43 O29         21.3640    29.2660    16.7310 os         1 G77      -0.412600
     44 C30         20.1390    28.7130    16.2740 c5         1 G77       0.142400
     45 C31         20.4880    27.5520    15.3470 c5         1 G77      -0.094700
     46 C41         23.0350    26.5790    16.2730 c5         1 G77       0.146100
     47 O42         23.2380    27.9090    16.7440 os         1 G77      -0.409600
     48 H1           8.8810    16.3640    20.9150 hn         1 G77       0.460800
     49 H2           9.0720    14.5890    18.8270 h1         1 G77       0.094700
     50 H3           6.6060    16.3270    19.5020 hc         1 G77       0.085200
     51 H4           6.5990    14.7200    18.6430 hc         1 G77       0.085200
     52 H5           8.0790    15.7130    16.8330 hc         1 G77       0.085200
     53 H6           8.0570    17.3050    17.7210 hc         1 G77       0.085200
     54 H7          13.7010    18.1980    17.1010 ha         1 G77       0.154000
     55 H8          14.8680    20.1740    20.7500 ha         1 G77       0.155000
     56 H9          12.8790    19.2890    21.8950 ha         1 G77       0.155000
     57 H10         13.3090    21.0460    16.3710 h1         1 G77       0.052700
     58 H11         14.5970    20.0800    15.6540 h1         1 G77       0.052700
     59 H12         14.2930    23.0780    15.3150 hc         1 G77       0.041700
     60 H13         16.7020    22.3630    15.2250 hc         1 G77       0.040367
     61 H14         16.2760    21.1180    14.0530 hc         1 G77       0.040367
     62 H15         16.1120    22.8220    13.6320 hc         1 G77       0.040367
     63 H16         12.5490    21.7530    14.1610 hc         1 G77       0.040367
     64 H17         13.6660    22.4710    13.0040 hc         1 G77       0.040367
     65 H18         13.7930    20.7590    13.3990 hc         1 G77       0.040367
     66 H19         13.7320    22.6190    17.8950 h1         1 G77       0.054700
     67 H20         14.8580    22.1700    19.1460 h1         1 G77       0.054700
     68 H21         15.5460    23.9190    16.7410 h1         1 G77       0.055700
     69 H22         14.1400    25.0070    18.1210 ho         1 G77       0.406000
     70 H23         17.4780    22.7860    17.7300 h1         1 G77       0.103700
     71 H24         17.3980    25.7340    17.9650 hn         1 G77       0.328500
     72 H25         16.8960    24.5010    20.1950 hc         1 G77       0.067700
     73 H26         16.7720    22.7500    20.1420 hc         1 G77       0.067700
     74 H27         19.0540    25.6080    20.3390 ha         1 G77       0.166000
     75 H28         22.5970    23.2080    20.6600 ha         1 G77       0.164000
     76 H29         18.8340    21.3540    19.7570 ha         1 G77       0.166000
     77 H30         20.5600    25.4350    15.1980 h1         1 G77       0.060700
     78 H31         21.6210    26.3470    17.8890 hc         1 G77       0.076700
     79 H32         21.9320    24.8700    17.0000 hc         1 G77       0.076700
     80 H34         23.8000    27.0780    14.3050 hc         1 G77       0.064700
     81 H35         21.8150    28.5230    13.8990 hc         1 G77       0.078700
     82 H36         23.0630    29.6350    15.6880 h2         1 G77       0.092700
     83 H37         19.5780    29.4740    15.7210 h1         1 G77       0.052700
     84 H38         19.5350    28.4200    17.1330 h1         1 G77       0.052700
     85 H39         19.7650    27.5030    14.5310 hc         1 G77       0.068700
     86 H40         23.9210    26.0020    16.5420 h1         1 G77       0.085700
     87 F61         21.5960    25.6040    20.7820 f          1 G77      -0.139900
     88 H33         22.4850    25.9080    14.2410 hc         1 G77       0.064700
@<TRIPOS>BOND
     1     1     2 1   
     2     1     7 1   
     3     1    48 1   
     4     2     3 1   
     5     2     4 1   
     6     2    49 1   
     7     3     4 1   
     8     3    50 1   
     9     3    51 1   
    10     4    52 1   
    11     4    53 1   
    12     5     7 1   
    13     5     9 1   
    14     6     7 2   
    15     6     8 1   
    16     8     9 ar  
    17     8    13 ar  
    18     9    10 ar  
    19    10    11 ar  
    20    10    54 1   
    21    11    12 ar  
    22    11    14 1   
    23    12    13 ar  
    24    12    55 1   
    25    13    56 1   
    26    14    15 2   
    27    14    16 2   
    28    14    17 1   
    29    17    18 1   
    30    17    22 1   
    31    18    19 1   
    32    18    57 1   
    33    18    58 1   
    34    19    20 1   
    35    19    21 1   
    36    19    59 1   
    37    20    60 1   
    38    20    61 1   
    39    20    62 1   
    40    21    63 1   
    41    21    64 1   
    42    21    65 1   
    43    22    23 1   
    44    22    66 1   
    45    22    67 1   
    46    23    24 1   
    47    23    25 1   
    48    23    68 1   
    49    24    69 1   
    50    25    26 1   
    51    25    30 1   
    52    25    70 1   
    53    26    27 1   
    54    26    71 1   
    55    27    28 2   
    56    27    29 1   
    57    29    38 1   
    58    30    36 1   
    59    30    72 1   
    60    30    73 1   
    61    31    32 ar  
    62    31    36 ar  
    63    31    74 1   
    64    32    33 ar  
    65    32    87 1   
    66    33    34 ar  
    67    33    75 1   
    68    34    35 ar  
    69    34    37 1   
    70    35    36 ar  
    71    35    76 1   
    72    38    39 1   
    73    38    45 1   
    74    38    77 1   
    75    39    46 1   
    76    39    78 1   
    77    39    79 1   
    78    40    41 1   
    79    40    46 1   
    80    40    80 1   
    81    40    88 1   
    82    41    42 1   
    83    41    45 1   
    84    41    81 1   
    85    42    43 1   
    86    42    47 1   
    87    42    82 1   
    88    43    44 1   
    89    44    45 1   
    90    44    83 1   
    91    44    84 1   
    92    45    85 1   
    93    46    47 1   
    94    46    86 1   
@<TRIPOS>SUBSTRUCTURE
     1 G77         1 TEMP              0 ****  ****    0 ROOT
