@<TRIPOS>MOLECULE
G79
   87    91     1     0     0
SMALL
No Charge or Current Charge


@<TRIPOS>ATOM
      1 C2           8.1340     0.6870    -1.2410 ca         1 G79       0.195100
      2 C3           7.7210    -0.6580    -1.1350 ca         1 G79      -0.199000
      3 C4           6.3610    -0.9670    -0.9570 ca         1 G79       0.024000
      4 C5           5.4110     0.0700    -0.8770 ca         1 G79      -0.338500
      5 C6           5.8200     1.4110    -0.9940 ca         1 G79       0.024000
      6 C7           7.1790     1.7120    -1.1730 ca         1 G79      -0.199000
      7 S8           3.6700    -0.3010    -0.6450 sy         1 G79       1.194600
      8 O9           2.9360     0.4340    -1.6820 o          1 G79      -0.540500
      9 O10          3.4580    -1.7400    -0.4600 o          1 G79      -0.540500
     10 N11          3.2950     0.4790     0.8350 n3         1 G79      -0.780500
     11 C12          3.5550    -0.3170     2.0660 c3         1 G79       0.231800
     12 C13          5.0440    -0.5830     2.4210 c3         1 G79      -0.090700
     13 C14          5.8390     0.7250     2.6500 c3         1 G79      -0.086600
     14 C15          5.1600    -1.5140     3.6500 c3         1 G79      -0.086600
     15 C16          1.9670     1.1610     0.8590 c3         1 G79       0.203800
     16 C17          0.6890     0.2530     0.7930 c3         1 G79       0.136300
     17 O18          0.4790    -0.4580     2.0380 oh         1 G79      -0.643000
     18 C19         -0.5910     1.0550     0.4030 c3         1 G79       0.097700
     19 N20         -1.7540     0.1760     0.2440 ns         1 G79      -0.489900
     20 C21         -2.2130    -0.3050    -0.9450 c          1 G79       0.646100
     21 O22         -1.6420    -0.1980    -2.0180 o          1 G79      -0.544000
     22 O23         -3.4960    -0.7030    -0.7580 os         1 G79      -0.461100
     23 C24         -4.3190    -1.1150    -1.8670 c6         1 G79       0.206300
     24 C25         -4.5170    -3.5420    -1.0760 c6         1 G79      -0.069400
     25 C26         -6.0340    -3.3770    -0.8040 c6         1 G79      -0.068400
     26 C27         -6.4370    -1.9020    -0.5500 c5         1 G79       0.170300
     27 O28         -5.9660    -1.4240     0.7220 os         1 G79      -0.434000
     28 C29         -6.1400     0.0100     0.7270 c5         1 G79       0.379300
     29 C30         -6.1100     0.4600    -0.7760 c5         1 G79      -0.121700
     30 C31         -5.8300    -0.8750    -1.5520 c5         1 G79      -0.092700
     31 C32         -0.9570     2.2300     1.3550 c3         1 G79      -0.057100
     32 C33         -3.3910     2.7210     1.9460 ca         1 G79      -0.100500
     33 C34         -4.6550     3.2510     1.6330 ca         1 G79      -0.109000
     34 C35         -4.8600     3.9040     0.4070 ca         1 G79      -0.110000
     35 C36         -3.7990     4.0290    -0.5050 ca         1 G79      -0.109000
     36 C37         -2.5350     3.5010    -0.1920 ca         1 G79      -0.100500
     37 C38         -2.3220     2.8420     1.0350 ca         1 G79      -0.084300
     38 O39          9.4550     1.0480    -1.4150 os         1 G79      -0.335100
     39 C40         10.5120     0.0750    -1.4940 c3         1 G79       0.145900
     40 O41         -7.4770     0.2980     1.1850 os         1 G79      -0.475000
     41 C42         -7.9830     1.3710     0.3740 c5         1 G79       0.159600
     42 C43         -7.5780     0.9280    -1.0470 c5         1 G79      -0.113400
     43 C44         -4.0490    -2.6010    -2.2180 c6         1 G79      -0.093400
     44 H1           8.4350    -1.4740    -1.1880 ha         1 G79       0.127000
     45 H2           6.0560    -2.0090    -0.8760 ha         1 G79       0.133500
     46 H3           5.0890     2.2170    -0.9360 ha         1 G79       0.133500
     47 H4           7.4960     2.7480    -1.2570 ha         1 G79       0.127000
     48 H5           3.1240     0.2070     2.9310 h1         1 G79       0.064700
     49 H6           3.0330    -1.2810     2.0090 h1         1 G79       0.064700
     50 H7           5.5090    -1.1200     1.5900 hc         1 G79       0.051700
     51 H8           5.4420     1.2760     3.5110 hc         1 G79       0.035700
     52 H9           6.8970     0.5070     2.8400 hc         1 G79       0.035700
     53 H10          5.7840     1.3820     1.7750 hc         1 G79       0.035700
     54 H11          4.6440    -2.4640     3.4670 hc         1 G79       0.035700
     55 H12          6.2110    -1.7380     3.8690 hc         1 G79       0.035700
     56 H13          4.7160    -1.0470     4.5380 hc         1 G79       0.035700
     57 H14          1.8990     1.7710     1.7700 h1         1 G79       0.051200
     58 H15          1.9160     1.8820     0.0330 h1         1 G79       0.051200
     59 H16          0.8450    -0.4730    -0.0160 h1         1 G79       0.116700
     60 H17          0.2220     0.1990     2.7180 ho         1 G79       0.431000
     61 H18         -0.3920     1.5050    -0.5800 h1         1 G79       0.095700
     62 H19         -2.3810     0.0550     1.0270 hn         1 G79       0.331500
     63 H20         -4.0620    -0.4890    -2.7340 h1         1 G79       0.070700
     64 H21         -3.9490    -3.3310    -0.1600 hc         1 G79       0.053700
     65 H22         -4.3000    -4.5860    -1.3410 hc         1 G79       0.053700
     66 H23         -6.5970    -3.7530    -1.6690 hc         1 G79       0.049700
     67 H24         -6.3340    -3.9980     0.0510 hc         1 G79       0.049700
     68 H25         -7.5350    -1.8530    -0.5440 h1         1 G79       0.041700
     69 H26         -5.3820     0.5140     1.3420 h2         1 G79       0.084700
     70 H27         -5.3730     1.2500    -0.9630 hc         1 G79       0.083700
     71 H28         -6.3400    -0.9130    -2.5220 hc         1 G79       0.070700
     72 H29         -0.9460     1.8770     2.3930 hc         1 G79       0.048200
     73 H30         -0.1850     3.0060     1.2890 hc         1 G79       0.048200
     74 H32         -5.4750     3.1530     2.3410 ha         1 G79       0.114000
     75 H33         -5.8390     4.3120     0.1640 ha         1 G79       0.112000
     76 H34         -3.9570     4.5340    -1.4560 ha         1 G79       0.114000
     77 H35         -1.7220     3.5990    -0.9080 ha         1 G79       0.111500
     78 H36         11.4790     0.5750    -1.6300 h1         1 G79       0.046367
     79 H37         10.5640    -0.5190    -0.5730 h1         1 G79       0.046367
     80 H38         10.3570    -0.6020    -2.3430 h1         1 G79       0.046367
     81 H39         -9.0700     1.4680     0.5030 h1         1 G79       0.044200
     82 H40         -7.4980     2.3120     0.6690 h1         1 G79       0.044200
     83 H41         -7.6300     1.7500    -1.7700 hc         1 G79       0.055700
     84 H42         -8.2390     0.1320    -1.4080 hc         1 G79       0.055700
     85 H43         -4.5700    -2.8590    -3.1500 hc         1 G79       0.054700
     86 H44         -2.9780    -2.7520    -2.4120 hc         1 G79       0.054700
     87 H31         -3.2460     2.2100     2.8960 ha         1 G79       0.111500
@<TRIPOS>BOND
     1     1     2 ar  
     2     1     6 ar  
     3     1    38 1   
     4     2     3 ar  
     5     2    44 1   
     6     3     4 ar  
     7     3    45 1   
     8     4     5 ar  
     9     4     7 1   
    10     5     6 ar  
    11     5    46 1   
    12     6    47 1   
    13     7     8 2   
    14     7     9 2   
    15     7    10 1   
    16    10    11 1   
    17    10    15 1   
    18    11    12 1   
    19    11    48 1   
    20    11    49 1   
    21    12    13 1   
    22    12    14 1   
    23    12    50 1   
    24    13    51 1   
    25    13    52 1   
    26    13    53 1   
    27    14    54 1   
    28    14    55 1   
    29    14    56 1   
    30    15    16 1   
    31    15    57 1   
    32    15    58 1   
    33    16    17 1   
    34    16    18 1   
    35    16    59 1   
    36    17    60 1   
    37    18    19 1   
    38    18    31 1   
    39    18    61 1   
    40    19    20 1   
    41    19    62 1   
    42    20    21 2   
    43    20    22 1   
    44    22    23 1   
    45    23    30 1   
    46    23    43 1   
    47    23    63 1   
    48    24    25 1   
    49    24    43 1   
    50    24    64 1   
    51    24    65 1   
    52    25    26 1   
    53    25    66 1   
    54    25    67 1   
    55    26    27 1   
    56    26    30 1   
    57    26    68 1   
    58    27    28 1   
    59    28    29 1   
    60    28    40 1   
    61    28    69 1   
    62    29    30 1   
    63    29    42 1   
    64    29    70 1   
    65    30    71 1   
    66    31    37 1   
    67    31    72 1   
    68    31    73 1   
    69    32    33 ar  
    70    32    37 ar  
    71    32    87 1   
    72    33    34 ar  
    73    33    74 1   
    74    34    35 ar  
    75    34    75 1   
    76    35    36 ar  
    77    35    76 1   
    78    36    37 ar  
    79    36    77 1   
    80    38    39 1   
    81    39    78 1   
    82    39    79 1   
    83    39    80 1   
    84    40    41 1   
    85    41    42 1   
    86    41    81 1   
    87    41    82 1   
    88    42    83 1   
    89    42    84 1   
    90    43    85 1   
    91    43    86 1   
@<TRIPOS>SUBSTRUCTURE
     1 G79         1 TEMP              0 ****  ****    0 ROOT
