@<TRIPOS>MOLECULE
G79
   87    91     1     0     0
SMALL
bcc


@<TRIPOS>ATOM
      1 C2           7.1510     1.2400    -1.4270 ca         1 G79       0.195100
      2 C3           7.4560     0.0440    -0.7790 ca         1 G79      -0.217000
      3 C4           6.4440    -0.8520    -0.4700 ca         1 G79       0.006000
      4 C5           5.1300    -0.5650    -0.8020 ca         1 G79      -0.338500
      5 C6           4.8240     0.6180    -1.4760 ca         1 G79       0.006000
      6 C7           5.8250     1.5150    -1.7790 ca         1 G79      -0.217000
      7 S8           3.8350    -1.6740    -0.3410 sy         1 G79       1.336200
      8 O9           2.8490    -1.6370    -1.4130 o          1 G79      -0.611300
      9 O10          4.4520    -2.9380     0.0310 o          1 G79      -0.611300
     10 N11          3.1110    -1.0690     0.9980 n3         1 G79      -0.780500
     11 C12          3.6200    -1.3890     2.3310 c3         1 G79       0.231800
     12 C13          4.9210    -0.7010     2.7450 c3         1 G79      -0.090700
     13 C14          4.8770     0.8110     2.5660 c3         1 G79      -0.086600
     14 C15          5.2260    -1.0730     4.1930 c3         1 G79      -0.086600
     15 C16          2.0650    -0.0650     0.8460 c3         1 G79       0.203800
     16 C17          0.6690    -0.6780     0.7580 c3         1 G79       0.113100
     17 O18          0.2950    -1.3310     1.9500 oh         1 G79      -0.580800
     18 C19         -0.3720     0.3500     0.2960 c3         1 G79       0.097700
     19 N20         -1.6480    -0.2960     0.1100 ns         1 G79      -0.556900
     20 C21         -2.3480    -0.2300    -1.0400 c          1 G79       0.762100
     21 O22         -1.9310     0.2090    -2.0910 o          1 G79      -0.593000
     22 O23         -3.5720    -0.7360    -0.8630 os         1 G79      -0.437900
     23 C24         -4.4800    -0.7770    -1.9710 c6         1 G79       0.183100
     24 C25         -4.9170    -3.2310    -1.6340 c6         1 G79      -0.069400
     25 C26         -6.3540    -2.9480    -1.2140 c6         1 G79      -0.068400
     26 C27         -6.5640    -1.5450    -0.6760 c5         1 G79       0.147100
     27 O28         -6.0210    -1.4160     0.6350 os         1 G79      -0.387600
     28 C29         -5.8420    -0.0630     0.9150 c5         1 G79       0.332900
     29 C30         -5.8750     0.7000    -0.4280 c5         1 G79      -0.121700
     30 C31         -5.8800    -0.4240    -1.4630 c5         1 G79      -0.092700
     31 C32         -0.5110     1.5540     1.2430 c3         1 G79      -0.057100
     32 C33         -2.8170     2.5540     1.3910 ca         1 G79      -0.118500
     33 C34         -3.8030     3.4250     0.9450 ca         1 G79      -0.127000
     34 C35         -3.5550     4.2640    -0.1320 ca         1 G79      -0.128000
     35 C36         -2.3130     4.2300    -0.7540 ca         1 G79      -0.127000
     36 C37         -1.3300     3.3630    -0.3010 ca         1 G79      -0.118500
     37 C38         -1.5690     2.5140     0.7770 ca         1 G79      -0.084300
     38 O39          8.0550     2.1680    -1.7610 os         1 G79      -0.311900
     39 C40          9.4150     1.9460    -1.4290 c3         1 G79       0.122700
     40 O41         -6.9090     0.4240     1.6960 os         1 G79      -0.428600
     41 C42         -7.3950     1.6350     1.1420 c5         1 G79       0.136400
     42 C43         -7.1740     1.5050    -0.3550 c5         1 G79      -0.113400
     43 C44         -4.4300    -2.1590    -2.6020 c6         1 G79      -0.093400
     44 H1           8.4710    -0.2130    -0.5110 ha         1 G79       0.145000
     45 H2           6.7020    -1.7770     0.0260 ha         1 G79       0.151500
     46 H3           3.8110     0.8440    -1.7800 ha         1 G79       0.151500
     47 H4           5.5890     2.4330    -2.3010 ha         1 G79       0.145000
     48 H5           2.8290    -1.1080     3.0280 h1         1 G79       0.064700
     49 H6           3.7300    -2.4690     2.4260 h1         1 G79       0.064700
     50 H7           5.7370    -1.0930     2.1300 hc         1 G79       0.051700
     51 H8           4.0850     1.2600     3.1710 hc         1 G79       0.035700
     52 H9           5.8220     1.2610     2.8760 hc         1 G79       0.035700
     53 H10          4.7130     1.0990     1.5260 hc         1 G79       0.035700
     54 H11          5.2870    -2.1540     4.3270 hc         1 G79       0.035700
     55 H12          6.1770    -0.6450     4.5100 hc         1 G79       0.035700
     56 H13          4.4520    -0.6960     4.8660 hc         1 G79       0.035700
     57 H14          2.1420     0.6090     1.7020 h1         1 G79       0.051200
     58 H15          2.2410     0.5630    -0.0300 h1         1 G79       0.051200
     59 H16          0.6960    -1.4600    -0.0040 h1         1 G79       0.116700
     60 H17          0.3080    -0.7030     2.6800 ho         1 G79       0.392000
     61 H18         -0.0500     0.7140    -0.6820 h1         1 G79       0.095700
     62 H19         -2.1130    -0.6610     0.9270 hn         1 G79       0.331500
     63 H20         -4.1870    -0.0190    -2.7010 h1         1 G79       0.070700
     64 H21         -4.2630    -3.2730    -0.7610 hc         1 G79       0.053700
     65 H22         -4.8630    -4.2120    -2.1090 hc         1 G79       0.053700
     66 H23         -7.0070    -3.0570    -2.0850 hc         1 G79       0.049700
     67 H24         -6.7030    -3.6760    -0.4780 hc         1 G79       0.049700
     68 H25         -7.6460    -1.3500    -0.6470 h1         1 G79       0.041700
     69 H26         -4.9050     0.0420     1.4730 h2         1 G79       0.084700
     70 H27         -5.0180     1.3670    -0.5260 hc         1 G79       0.083700
     71 H28         -6.4760    -0.1570    -2.3390 hc         1 G79       0.070700
     72 H29         -0.7560     1.2110     2.2530 hc         1 G79       0.048200
     73 H30          0.4500     2.0710     1.3090 hc         1 G79       0.048200
     74 H32         -4.7660     3.4470     1.4410 ha         1 G79       0.132000
     75 H33         -4.3220     4.9430    -0.4810 ha         1 G79       0.130000
     76 H34         -2.1110     4.8840    -1.5930 ha         1 G79       0.132000
     77 H35         -0.3620     3.3500    -0.7890 ha         1 G79       0.129500
     78 H36          9.9610     2.8180    -1.7770 h1         1 G79       0.046367
     79 H37          9.5560     1.8470    -0.3510 h1         1 G79       0.046367
     80 H38          9.8130     1.0580    -1.9250 h1         1 G79       0.046367
     81 H39         -8.4430     1.7520     1.4200 h1         1 G79       0.044200
     82 H40         -6.8430     2.4940     1.5440 h1         1 G79       0.044200
     83 H41         -7.0960     2.4730    -0.8500 hc         1 G79       0.055700
     84 H42         -8.0010     0.9620    -0.8190 hc         1 G79       0.055700
     85 H43         -5.0690    -2.1490    -3.4920 hc         1 G79       0.054700
     86 H44         -3.4170    -2.3700    -2.9520 hc         1 G79       0.054700
     87 H31         -3.0160     1.9000     2.2330 ha         1 G79       0.129500
@<TRIPOS>BOND
     1     1     2 ar  
     2     1     6 ar  
     3     1    38 1   
     4     2     3 ar  
     5     2    44 1   
     6     3     4 ar  
     7     3    45 1   
     8     4     5 ar  
     9     4     7 1   
    10     5     6 ar  
    11     5    46 1   
    12     6    47 1   
    13     7     8 2   
    14     7     9 2   
    15     7    10 1   
    16    10    11 1   
    17    10    15 1   
    18    11    12 1   
    19    11    48 1   
    20    11    49 1   
    21    12    13 1   
    22    12    14 1   
    23    12    50 1   
    24    13    51 1   
    25    13    52 1   
    26    13    53 1   
    27    14    54 1   
    28    14    55 1   
    29    14    56 1   
    30    15    16 1   
    31    15    57 1   
    32    15    58 1   
    33    16    17 1   
    34    16    18 1   
    35    16    59 1   
    36    17    60 1   
    37    18    19 1   
    38    18    31 1   
    39    18    61 1   
    40    19    20 1   
    41    19    62 1   
    42    20    21 2   
    43    20    22 1   
    44    22    23 1   
    45    23    30 1   
    46    23    43 1   
    47    23    63 1   
    48    24    25 1   
    49    24    43 1   
    50    24    64 1   
    51    24    65 1   
    52    25    26 1   
    53    25    66 1   
    54    25    67 1   
    55    26    27 1   
    56    26    30 1   
    57    26    68 1   
    58    27    28 1   
    59    28    29 1   
    60    28    40 1   
    61    28    69 1   
    62    29    30 1   
    63    29    42 1   
    64    29    70 1   
    65    30    71 1   
    66    31    37 1   
    67    31    72 1   
    68    31    73 1   
    69    32    33 ar  
    70    32    37 ar  
    71    32    87 1   
    72    33    34 ar  
    73    33    74 1   
    74    34    35 ar  
    75    34    75 1   
    76    35    36 ar  
    77    35    76 1   
    78    36    37 ar  
    79    36    77 1   
    80    38    39 1   
    81    39    78 1   
    82    39    79 1   
    83    39    80 1   
    84    40    41 1   
    85    41    42 1   
    86    41    81 1   
    87    41    82 1   
    88    42    83 1   
    89    42    84 1   
    90    43    85 1   
    91    43    86 1   
@<TRIPOS>SUBSTRUCTURE
     1 G79         1 TEMP              0 ****  ****    0 ROOT
