@<TRIPOS>MOLECULE
G7A
   39    41     1     0     0
SMALL
No Charge or Current Charge


@<TRIPOS>ATOM
      1 O21          0.7380     3.8300     0.2480 o          1 G7A      -0.735500
      2 C20          1.9070     3.4950     0.1190 c          1 G7A       0.745600
      3 O22          2.8120     4.3030    -0.0240 o          1 G7A      -0.735500
      4 C17          2.2520     2.0720     0.1440 cc         1 G7A      -0.277600
      5 C18          3.5470     1.5430     0.0340 cc         1 G7A       0.305900
      6 N19          3.6090     0.2210     0.1080 nd         1 G7A      -0.588800
      7 N4           2.2640    -0.1160     0.2540 na         1 G7A       0.048800
      8 C3           1.7460    -1.5020     0.4420 c6         1 G7A       0.056300
      9 C13          2.5090    -2.6070    -0.3620 c3         1 G7A       0.295000
     10 F57          3.7880    -2.7510     0.0560 f          1 G7A      -0.115000
     11 F56          1.9200    -3.8170    -0.2210 f          1 G7A      -0.115000
     12 F58          2.5440    -2.3350    -1.6880 f          1 G7A      -0.115000
     13 C5           1.4340     1.0060     0.2900 cd         1 G7A       0.244000
     14 N6           0.0800     0.9260     0.4610 nu         1 G7A      -0.928200
     15 C1          -0.5530    -0.3460     0.8320 c6         1 G7A       0.266800
     16 C2           0.2080    -1.5130     0.1360 c6         1 G7A      -0.097400
     17 C7          -2.0480    -0.3300     0.4890 ca         1 G7A      -0.085300
     18 C12         -3.0060    -0.5420     1.5010 ca         1 G7A      -0.088000
     19 C11         -4.3780    -0.5360     1.1940 ca         1 G7A      -0.116000
     20 C10         -4.8110    -0.3180    -0.1270 ca         1 G7A      -0.083300
     21 C32         -6.2980    -0.3080    -0.4560 c3         1 G7A      -0.028100
     22 C33         -6.9130     1.0970    -0.3230 c3         1 G7A      -0.086100
     23 C9          -3.8570    -0.1020    -1.1380 ca         1 G7A      -0.116000
     24 C8          -2.4850    -0.1080    -0.8340 ca         1 G7A      -0.088000
     25 H18          4.4690     2.0960    -0.0890 h4         1 G7A       0.036100
     26 H3           1.8740    -1.7400     1.5070 h1         1 G7A       0.072700
     27 H4          -0.4120     1.8160     0.5830 hn         1 G7A       0.531000
     28 H1          -0.4490    -0.4830     1.9190 h1         1 G7A       0.029700
     29 H22          0.0540    -1.4490    -0.9500 hc         1 G7A       0.065700
     30 H21         -0.2330    -2.4670     0.4530 hc         1 G7A       0.065700
     31 H12         -2.6880    -0.7130     2.5270 ha         1 G7A       0.123500
     32 H11         -5.1050    -0.7000     1.9870 ha         1 G7A       0.105000
     33 H321        -6.4630    -0.6730    -1.4780 hc         1 G7A       0.038200
     34 H322        -6.8380    -0.9970     0.2050 hc         1 G7A       0.038200
     35 H331        -7.9820     1.0720    -0.5660 hc         1 G7A       0.033367
     36 H333        -6.8020     1.4720     0.7020 hc         1 G7A       0.033367
     37 H332        -6.4210     1.8010    -1.0050 hc         1 G7A       0.033367
     38 H9          -4.1780     0.0730    -2.1620 ha         1 G7A       0.105000
     39 H8          -1.7600     0.0650    -1.6260 ha         1 G7A       0.123500
@<TRIPOS>BOND
     1     1     2 1   
     2     2     3 1   
     3     2     4 1   
     4     4     5 1   
     5     4    13 2   
     6     5     6 2   
     7     5    25 1   
     8     6     7 1   
     9     7     8 1   
    10     7    13 1   
    11     8     9 1   
    12     8    16 1   
    13     8    26 1   
    14     9    10 1   
    15     9    11 1   
    16     9    12 1   
    17    13    14 1   
    18    14    15 1   
    19    14    27 1   
    20    15    16 1   
    21    15    17 1   
    22    15    28 1   
    23    16    29 1   
    24    16    30 1   
    25    17    18 ar  
    26    17    24 ar  
    27    18    19 ar  
    28    18    31 1   
    29    19    20 ar  
    30    19    32 1   
    31    20    21 1   
    32    20    23 ar  
    33    21    22 1   
    34    21    33 1   
    35    21    34 1   
    36    22    35 1   
    37    22    36 1   
    38    22    37 1   
    39    23    24 ar  
    40    23    38 1   
    41    24    39 1   
@<TRIPOS>SUBSTRUCTURE
     1 G7A         1 TEMP              0 ****  ****    0 ROOT
