@<TRIPOS>MOLECULE
G7A
   39    41     1     0     0
SMALL
bcc


@<TRIPOS>ATOM
      1 O21          0.7680     3.7580    -0.0160 o          1 G7A      -0.840800
      2 C20          1.9920     3.4780    -0.0110 c          1 G7A       0.956200
      3 O22          2.9360     4.2890    -0.0760 o          1 G7A      -0.840800
      4 C17          2.3360     2.0370     0.0970 cc         1 G7A      -0.342900
      5 C18          3.5930     1.4090     0.2010 cc         1 G7A       0.371200
      6 N19          3.5050     0.1070     0.3420 nd         1 G7A      -0.588800
      7 N4           2.1750    -0.1480     0.3120 na         1 G7A       0.027400
      8 C3           1.6390    -1.4690     0.5350 c6         1 G7A       0.027000
      9 C13          2.3700    -2.4960    -0.3250 c3         1 G7A       0.658900
     10 F57          3.6190    -2.7270     0.0830 f          1 G7A      -0.236300
     11 F56          1.7310    -3.6740    -0.2810 f          1 G7A      -0.236300
     12 F58          2.4300    -2.1220    -1.6070 f          1 G7A      -0.236300
     13 C5           1.4430     0.9780     0.1800 cd         1 G7A       0.156300
     14 N6           0.0840     0.9430     0.1420 nu         1 G7A      -0.734600
     15 C1          -0.5500    -0.2110     0.7480 c6         1 G7A       0.266800
     16 C2           0.1410    -1.4620     0.2080 c6         1 G7A      -0.097400
     17 C7          -2.0210    -0.2370     0.4240 ca         1 G7A      -0.085300
     18 C12         -2.9490    -0.5670     1.4050 ca         1 G7A      -0.106000
     19 C11         -4.3040    -0.6290     1.1090 ca         1 G7A      -0.134000
     20 C10         -4.7690    -0.3590    -0.1760 ca         1 G7A      -0.083300
     21 C32         -6.2410    -0.3690    -0.4830 c3         1 G7A      -0.028100
     22 C33         -6.8990     0.9720    -0.1620 c3         1 G7A      -0.086100
     23 C9          -3.8340    -0.0290    -1.1540 ca         1 G7A      -0.134000
     24 C8          -2.4790     0.0310    -0.8630 ca         1 G7A      -0.106000
     25 H18          4.5640     1.8830     0.1810 h4         1 G7A       0.036100
     26 H3           1.7860    -1.7560     1.5820 h1         1 G7A       0.072700
     27 H4          -0.3230     1.8520     0.3200 hn         1 G7A       0.475800
     28 H1          -0.4380    -0.1970     1.8420 h1         1 G7A       0.029700
     29 H22         -0.0190    -1.5030    -0.8730 hc         1 G7A       0.065700
     30 H21         -0.3220    -2.3440     0.6460 hc         1 G7A       0.065700
     31 H12         -2.6120    -0.7790     2.4130 ha         1 G7A       0.141500
     32 H11         -5.0090    -0.8850     1.8920 ha         1 G7A       0.123000
     33 H321        -6.3930    -0.6050    -1.5390 hc         1 G7A       0.038200
     34 H322        -6.7320    -1.1600     0.0880 hc         1 G7A       0.038200
     35 H331        -7.9640     0.9500    -0.3910 hc         1 G7A       0.033367
     36 H333        -6.7880     1.2190     0.8950 hc         1 G7A       0.033367
     37 H332        -6.4470     1.7790    -0.7410 hc         1 G7A       0.033367
     38 H9          -4.1710     0.1880    -2.1620 ha         1 G7A       0.123000
     39 H8          -1.7730     0.2890    -1.6430 ha         1 G7A       0.141500
@<TRIPOS>BOND
     1     1     2 1   
     2     2     3 1   
     3     2     4 1   
     4     4     5 1   
     5     4    13 2   
     6     5     6 2   
     7     5    25 1   
     8     6     7 1   
     9     7     8 1   
    10     7    13 1   
    11     8     9 1   
    12     8    16 1   
    13     8    26 1   
    14     9    10 1   
    15     9    11 1   
    16     9    12 1   
    17    13    14 1   
    18    14    15 1   
    19    14    27 1   
    20    15    16 1   
    21    15    17 1   
    22    15    28 1   
    23    16    29 1   
    24    16    30 1   
    25    17    18 ar  
    26    17    24 ar  
    27    18    19 ar  
    28    18    31 1   
    29    19    20 ar  
    30    19    32 1   
    31    20    21 1   
    32    20    23 ar  
    33    21    22 1   
    34    21    33 1   
    35    21    34 1   
    36    22    35 1   
    37    22    36 1   
    38    22    37 1   
    39    23    24 ar  
    40    23    38 1   
    41    24    39 1   
@<TRIPOS>SUBSTRUCTURE
     1 G7A         1 TEMP              0 ****  ****    0 ROOT
