@<TRIPOS>MOLECULE
G7B
   28    28     1     0     0
SMALL
No Charge or Current Charge


@<TRIPOS>ATOM
      1 CAA         -3.9550     2.1380     0.5690 c3         1 G7B      -0.182100
      2 CAB          4.2930    -0.1840     0.9840 c3         1 G7B      -0.085100
      3 CAC          4.2200     0.5070    -1.4560 c3         1 G7B      -0.085100
      4 CAG         -2.4970    -1.3020    -0.4480 cc         1 G7B      -0.252000
      5 CAK         -3.9270     0.6650     0.1510 c          1 G7B       0.506600
      6 CAL          2.1140    -0.3880    -0.3270 c          1 G7B       0.560100
      7 CAM         -2.5780     0.0250    -0.0710 cd         1 G7B       0.216500
      8 CAN         -0.3560    -0.2060    -0.2020 cc         1 G7B       0.527300
      9 CAO          3.4330     0.4760    -0.1220 c3         1 G7B       0.145200
     10 NAD          3.2310     1.9090     0.2890 n8         1 G7B      -1.045200
     11 NAH         -1.3290     0.6450     0.0680 nd         1 G7B      -0.693000
     12 NAI          0.9250     0.2710    -0.1050 ns         1 G7B      -0.473400
     13 OAE         -4.9840     0.0550     0.0100 o          1 G7B      -0.523100
     14 OAF          2.1510    -1.5650    -0.6610 o          1 G7B      -0.570100
     15 SAJ         -0.8510    -1.8250    -0.6460 ss         1 G7B       0.091600
     16 H1          -3.3960     2.7260    -0.1680 hc         1 G7B       0.064700
     17 H2          -4.9720     2.5230     0.7080 hc         1 G7B       0.064700
     18 H3          -3.3470     2.2620     1.4720 hc         1 G7B       0.064700
     19 H4           5.2200     0.3780     1.1520 hc         1 G7B       0.052700
     20 H5           3.7430    -0.2280     1.9320 hc         1 G7B       0.052700
     21 H6           4.5680    -1.2090     0.7070 hc         1 G7B       0.052700
     22 H7           3.6180     0.9560    -2.2550 hc         1 G7B       0.052700
     23 H8           5.1450     1.0880    -1.3560 hc         1 G7B       0.052700
     24 H9           4.4940    -0.5070    -1.7720 hc         1 G7B       0.052700
     25 H10         -3.3030    -2.0030    -0.6230 h4         1 G7B       0.176000
     26 H11          2.6650     2.4160    -0.4030 hn         1 G7B       0.420500
     27 H12          2.7120     1.9700     1.1740 hn         1 G7B       0.420500
     28 H14          1.0080     1.2370     0.1650 hn         1 G7B       0.334500
@<TRIPOS>BOND
     1     1     5 1   
     2     1    16 1   
     3     1    17 1   
     4     1    18 1   
     5     2     9 1   
     6     2    19 1   
     7     2    20 1   
     8     2    21 1   
     9     3     9 1   
    10     3    22 1   
    11     3    23 1   
    12     3    24 1   
    13     4     7 2   
    14     4    15 1   
    15     4    25 1   
    16     5     7 1   
    17     5    13 2   
    18     6     9 1   
    19     6    12 1   
    20     6    14 2   
    21     7    11 1   
    22     8    11 2   
    23     8    12 1   
    24     8    15 1   
    25     9    10 1   
    26    10    26 1   
    27    10    27 1   
    28    12    28 1   
@<TRIPOS>SUBSTRUCTURE
     1 G7B         1 TEMP              0 ****  ****    0 ROOT
