@<TRIPOS>MOLECULE
G7B
   28    28     1     0     0
SMALL
abcg2


@<TRIPOS>ATOM
      1 CAA         -3.8810     2.0200     0.6170 c3         1 G7B      -0.182100
      2 CAB          4.1100    -0.2070     1.0020 c3         1 G7B      -0.085100
      3 CAC          4.1860     0.3750    -1.4390 c3         1 G7B      -0.085100
      4 CAG         -2.3520    -1.3010    -0.5000 cc         1 G7B      -0.252000
      5 CAK         -3.8620     0.5870     0.1760 c          1 G7B       0.506600
      6 CAL          2.0480    -0.2150    -0.3430 c          1 G7B       0.560100
      7 CAM         -2.5360    -0.0180    -0.0840 cd         1 G7B       0.216500
      8 CAN         -0.3510    -0.0030    -0.1830 cc         1 G7B       0.527300
      9 CAO          3.3880     0.5110    -0.1410 c3         1 G7B       0.145200
     10 NAD          3.2950     1.9160     0.1900 n8         1 G7B      -1.045200
     11 NAH         -1.3910     0.7100     0.0910 nd         1 G7B      -0.693000
     12 NAI          0.9210     0.4990    -0.0840 ns         1 G7B      -0.473400
     13 OAE         -4.8720    -0.0680     0.0240 o          1 G7B      -0.523100
     14 OAF          1.9760    -1.3770    -0.7040 o          1 G7B      -0.570100
     15 SAJ         -0.6830    -1.6330    -0.6840 ss         1 G7B       0.091600
     16 H1          -3.4720     2.6580    -0.1690 hc         1 G7B       0.064700
     17 H2          -4.8960     2.3380     0.8420 hc         1 G7B       0.064700
     18 H3          -3.2490     2.1660     1.4940 hc         1 G7B       0.064700
     19 H4           5.0800     0.2620     1.1660 hc         1 G7B       0.052700
     20 H5           3.5430    -0.1450     1.9330 hc         1 G7B       0.052700
     21 H6           4.2710    -1.2590     0.7730 hc         1 G7B       0.052700
     22 H7           3.6950     0.8950    -2.2640 hc         1 G7B       0.052700
     23 H8           5.1730     0.8170    -1.3000 hc         1 G7B       0.052700
     24 H9           4.3150    -0.6670    -1.7230 hc         1 G7B       0.052700
     25 H10         -3.1000    -2.0510    -0.7030 h4         1 G7B       0.176000
     26 H11          2.8280     2.4670    -0.5180 hn         1 G7B       0.420500
     27 H12          2.8660     2.0920     1.0890 hn         1 G7B       0.420500
     28 H14          0.9940     1.4640     0.2070 hn         1 G7B       0.334500
@<TRIPOS>BOND
     1     1     5 1   
     2     1    16 1   
     3     1    17 1   
     4     1    18 1   
     5     2     9 1   
     6     2    19 1   
     7     2    20 1   
     8     2    21 1   
     9     3     9 1   
    10     3    22 1   
    11     3    23 1   
    12     3    24 1   
    13     4     7 2   
    14     4    15 1   
    15     4    25 1   
    16     5     7 1   
    17     5    13 2   
    18     6     9 1   
    19     6    12 1   
    20     6    14 2   
    21     7    11 1   
    22     8    11 2   
    23     8    12 1   
    24     8    15 1   
    25     9    10 1   
    26    10    26 1   
    27    10    27 1   
    28    12    28 1   
@<TRIPOS>SUBSTRUCTURE
     1 G7B         1 TEMP              0 ****  ****    0 ROOT
