@<TRIPOS>MOLECULE
G7D
   50    52     1     0     0
SMALL
abcg2


@<TRIPOS>ATOM
      1 C4          -7.2190     1.2380    -0.8560 c          1 G7D       0.492500
      2 C6          -4.0140     0.3610     0.5230 ca         1 G7D       0.252300
      3 C7          -4.4020    -0.5760     1.5010 ca         1 G7D       0.106900
      4 C9          -2.5660     0.6850     0.3030 c3         1 G7D       0.176500
      5 N1          -7.8720    -0.6660     1.1810 nc         1 G7D      -0.771700
      6 N3          -8.4900     0.8010    -0.5510 ns         1 G7D      -0.461400
      7 OE1          7.9600     2.8740     1.5040 o          1 G7D      -0.759000
      8 CD           7.2780     3.0370     0.4730 c          1 G7D       0.713000
      9 OE2          7.1440     4.1050    -0.1620 o          1 G7D      -0.759000
     10 CB           6.6890     0.5240     0.6840 c3         1 G7D      -0.057400
     11 CA           5.9720    -0.6650     0.0440 c3         1 G7D      -0.055300
     12 C            6.3190    -1.9810     0.7880 c          1 G7D       0.720000
     13 OXT          7.4970    -2.3650     0.6490 o          1 G7D      -0.737500
     14 O            5.4260    -2.5180     1.4650 o          1 G7D      -0.737500
     15 N            4.5480    -0.4070     0.0090 ns         1 G7D      -0.389900
     16 OAU          4.1360    -1.9500    -1.5680 o          1 G7D      -0.681100
     17 CAR          2.2580    -0.8960    -0.6070 ca         1 G7D      -0.262600
     18 CAN          1.3680    -1.7240    -1.3330 ca         1 G7D       0.252100
     19 CAO         -0.0040    -1.5550    -1.2140 ca         1 G7D      -0.270000
     20 OAS          1.8130    -2.6820    -2.1460 oh         1 G7D      -0.591100
     21 CAQ          1.6930     0.1070     0.1840 ca         1 G7D       0.004000
     22 CAP          0.3330     0.2930     0.2980 ca         1 G7D      -0.252000
     23 CAM         -0.5460    -0.5590    -0.3960 ca         1 G7D       0.346000
     24 N10         -1.9040    -0.4570    -0.2860 nu         1 G7D      -0.970200
     25 N5          -4.9220     0.9410    -0.2270 nb         1 G7D      -0.565000
     26 C4A         -6.1940     0.6130    -0.0200 ca         1 G7D       0.145500
     27 O4          -7.0170     2.0510    -1.7320 o          1 G7D      -0.495000
     28 C2          -8.7830    -0.1050     0.4310 cd         1 G7D       0.742800
     29 C8A         -6.5880    -0.3180     0.9560 ca         1 G7D       0.319000
     30 N8          -5.6500    -0.9070     1.7190 nb         1 G7D      -0.123000
     31 H1          -3.6490    -1.0560     2.1180 h4         1 G7D       0.051100
     32 H2          -2.4920     1.5850    -0.3170 h1         1 G7D       0.060700
     33 H3          -2.1030     0.9120     1.2660 h1         1 G7D       0.060700
     34 H4         -10.3160    -1.1050     1.2800 hn         1 G7D       0.507000
     35 H5         -10.7900    -0.0560    -0.0010 hn         1 G7D       0.507000
     36 H6          -9.2460     1.1860    -1.1050 hn         1 G7D       0.318500
     37 H8           5.4590     2.0910    -0.1590 hc         1 G7D       0.009700
     38 H9           6.8370     1.6690    -1.1280 hc         1 G7D       0.009700
     39 H10          7.7470     0.2730     0.7550 hc         1 G7D       0.052700
     40 H11          6.3360     0.6490     1.7140 hc         1 G7D       0.052700
     41 H12          6.3230    -0.7590    -0.9870 h1         1 G7D       0.060700
     42 H14          4.1720     0.1160     0.7830 hn         1 G7D       0.302500
     43 H15         -0.6610    -2.2120    -1.7730 ha         1 G7D       0.108000
     44 H16          2.8080    -2.6140    -2.1230 ho         1 G7D       0.541000
     45 H17          2.3260     0.7970     0.7280 ha         1 G7D       0.119000
     46 H18         -0.0360     1.1020     0.9120 ha         1 G7D       0.100000
     47 H19         -2.4260    -0.9150    -1.0180 hn         1 G7D       0.465000
     48 N2         -10.0680    -0.3970     0.6110 nv         1 G7D      -1.061200
     49 CAT          3.7090    -1.1210    -0.7400 c          1 G7D       0.609700
     50 CG           6.5190     1.8220    -0.0890 c3         1 G7D      -0.203400
@<TRIPOS>BOND
     1     1     6 1   
     2     1    26 1   
     3     1    27 2   
     4     2     3 ar  
     5     2     4 1   
     6     2    25 ar  
     7     3    30 ar  
     8     3    31 1   
     9     4    24 1   
    10     4    32 1   
    11     4    33 1   
    12     5    28 2   
    13     5    29 1   
    14     6    28 1   
    15     6    36 1   
    16     7     8 1   
    17     8     9 1   
    18     8    50 1   
    19    10    11 1   
    20    10    39 1   
    21    10    40 1   
    22    10    50 1   
    23    11    12 1   
    24    11    15 1   
    25    11    41 1   
    26    12    13 1   
    27    12    14 1   
    28    15    42 1   
    29    15    49 1   
    30    16    49 2   
    31    17    18 ar  
    32    17    21 ar  
    33    17    49 1   
    34    18    19 ar  
    35    18    20 1   
    36    19    23 ar  
    37    19    43 1   
    38    20    44 1   
    39    21    22 ar  
    40    21    45 1   
    41    22    23 ar  
    42    22    46 1   
    43    23    24 1   
    44    24    47 1   
    45    25    26 ar  
    46    26    29 ar  
    47    28    48 1   
    48    29    30 ar  
    49    34    48 1   
    50    35    48 1   
    51    37    50 1   
    52    38    50 1   
@<TRIPOS>SUBSTRUCTURE
     1 G7D         1 TEMP              0 ****  ****    0 ROOT
