@<TRIPOS>MOLECULE
G7D
   50    52     1     0     0
SMALL
No Charge or Current Charge


@<TRIPOS>ATOM
      1 C4          -6.7420     0.7100    -1.2260 c          1 G7D       0.492500
      2 C6          -4.1240    -0.0600     1.2830 ca         1 G7D       0.252300
      3 C7          -4.9250    -0.4640     2.3670 ca         1 G7D       0.106900
      4 C9          -2.5890    -0.0400     1.3970 c3         1 G7D       0.176500
      5 N1          -8.2930    -0.1510     1.0860 nc         1 G7D      -0.771700
      6 N3          -8.0920     0.6330    -1.1640 ns         1 G7D      -0.461400
      7 OE1          6.5250     3.8240     0.0270 o          1 G7D      -0.759000
      8 CD           7.0300     2.9580    -0.6710 c          1 G7D       0.713000
      9 OE2          8.1240     3.0750    -1.2030 o          1 G7D      -0.759000
     10 CB           6.6860     0.6380     0.2890 c3         1 G7D      -0.057400
     11 CA           6.0770    -0.7840     0.1600 c3         1 G7D      -0.055300
     12 C            6.6500    -1.7440     1.2450 c          1 G7D       0.720000
     13 OXT          7.4300    -2.6160     0.8910 o          1 G7D      -0.737500
     14 O            6.2250    -1.6500     2.3900 o          1 G7D      -0.737500
     15 N            4.5960    -0.7690     0.2340 ns         1 G7D      -0.389900
     16 OAU          4.1450    -0.8400    -1.9990 o          1 G7D      -0.681100
     17 CAR          2.2560    -0.7200    -0.5430 ca         1 G7D      -0.262600
     18 CAN          1.3170    -0.7340    -1.5970 ca         1 G7D       0.252100
     19 CAO         -0.0570    -0.6810    -1.3420 ca         1 G7D      -0.270000
     20 OAS          1.7330    -0.8010    -2.8870 oh         1 G7D      -0.591100
     21 CAQ          1.7690    -0.6500     0.7840 ca         1 G7D       0.004000
     22 CAP          0.3870    -0.5960     1.0310 ca         1 G7D      -0.252000
     23 CAM         -0.5260    -0.6100    -0.0310 ca         1 G7D       0.346000
     24 N10         -1.8970    -0.5600     0.1890 nu         1 G7D      -0.970200
     25 N5          -4.6870     0.3250     0.1100 nb         1 G7D      -0.565000
     26 C4A         -6.0520     0.2950     0.0460 ca         1 G7D       0.145500
     27 O4          -6.1740     1.0900    -2.2420 o          1 G7D      -0.495000
     28 C2          -8.7550     0.2320    -0.0740 cd         1 G7D       0.742800
     29 C8A         -6.8770    -0.1160     1.1430 ca         1 G7D       0.319000
     30 N8          -6.2720    -0.4900     2.2950 nb         1 G7D      -0.123000
     31 H1          -4.4810    -0.7730     3.3110 h4         1 G7D       0.051100
     32 H2          -2.2750     0.9970     1.5870 h1         1 G7D       0.060700
     33 H3          -2.2970    -0.6320     2.2760 h1         1 G7D       0.060700
     34 H4         -10.4880    -0.2820     0.6290 hn         1 G7D       0.507000
     35 H5         -10.4650    -0.0220    -1.0570 hn         1 G7D       0.507000
     36 H6          -8.6010     0.9220    -1.9840 hn         1 G7D       0.318500
     37 H8           5.1980     1.7810    -0.7300 hc         1 G7D       0.009700
     38 H9           6.5630     1.1370    -1.7780 hc         1 G7D       0.009700
     39 H10          7.7800     0.5440     0.2930 hc         1 G7D       0.052700
     40 H11          6.4080     1.0640     1.2610 hc         1 G7D       0.052700
     41 H12          6.3720    -1.1980    -0.8130 h1         1 G7D       0.060700
     42 H14          4.1750    -0.7510     1.1540 hn         1 G7D       0.302500
     43 H15         -0.7580    -0.6940    -2.1710 ha         1 G7D       0.108000
     44 H16          2.7300    -0.8280    -2.8240 ho         1 G7D       0.541000
     45 H17          2.4420    -0.6360     1.6380 ha         1 G7D       0.119000
     46 H18          0.0370    -0.5470     2.0570 ha         1 G7D       0.100000
     47 H19         -2.4650    -0.5670    -0.6610 hn         1 G7D       0.465000
     48 N2         -10.0660     0.2010    -0.1540 nv         1 G7D      -1.061200
     49 CAT          3.7360    -0.7790    -0.8440 c          1 G7D       0.609700
     50 CG           6.2780     1.6240    -0.8370 c3         1 G7D      -0.203400
@<TRIPOS>BOND
     1     1     6 1   
     2     1    26 1   
     3     1    27 2   
     4     2     3 ar  
     5     2     4 1   
     6     2    25 ar  
     7     3    30 ar  
     8     3    31 1   
     9     4    24 1   
    10     4    32 1   
    11     4    33 1   
    12     5    28 2   
    13     5    29 1   
    14     6    28 1   
    15     6    36 1   
    16     7     8 1   
    17     8     9 1   
    18     8    50 1   
    19    10    11 1   
    20    10    39 1   
    21    10    40 1   
    22    10    50 1   
    23    11    12 1   
    24    11    15 1   
    25    11    41 1   
    26    12    13 1   
    27    12    14 1   
    28    15    42 1   
    29    15    49 1   
    30    16    49 2   
    31    17    18 ar  
    32    17    21 ar  
    33    17    49 1   
    34    18    19 ar  
    35    18    20 1   
    36    19    23 ar  
    37    19    43 1   
    38    20    44 1   
    39    21    22 ar  
    40    21    45 1   
    41    22    23 ar  
    42    22    46 1   
    43    23    24 1   
    44    24    47 1   
    45    25    26 ar  
    46    26    29 ar  
    47    28    48 1   
    48    29    30 ar  
    49    34    48 1   
    50    35    48 1   
    51    37    50 1   
    52    38    50 1   
@<TRIPOS>SUBSTRUCTURE
     1 G7D         1 TEMP              0 ****  ****    0 ROOT
