@<TRIPOS>MOLECULE
G7E
   56    59     1     0     0
SMALL
bcc


@<TRIPOS>ATOM
      1 CAE          3.4070    -0.8160    -0.8350 ca         1 G7E      -0.096500
      2 CAF          3.2820    -0.4330     1.5340 ca         1 G7E      -0.096500
      3 CAG          2.0360    -0.9940    -0.8820 ca         1 G7E      -0.103000
      4 CAH          1.9050    -0.5820     1.4820 ca         1 G7E      -0.103000
      5 CAK          8.0760     1.8750     0.0610 c6         1 G7E       0.107400
      6 CAL          6.0560     2.8780    -0.5150 c6         1 G7E       0.107400
      7 CAM          7.5900     0.5250    -0.4350 c6         1 G7E       0.059500
      8 CAN          5.4890     1.5650    -1.0320 c6         1 G7E       0.059500
      9 CAY          4.0390    -0.5290     0.3730 ca         1 G7E      -0.132600
     10 CAZ          1.2700    -0.8720     0.2760 ca         1 G7E      -0.002000
     11 NBE          6.1400     0.4540    -0.3560 n          1 G7E      -0.477800
     12 OAD          6.1360    -1.1690     1.2240 o          1 G7E      -0.587100
     13 OAT          7.4580     2.9320    -0.6400 os         1 G7E      -0.397600
     14 H1           3.9860    -0.9040    -1.7460 ha         1 G7E       0.144500
     15 H2           3.7600    -0.2220     2.4820 ha         1 G7E       0.144500
     16 H3           1.5570    -1.2110    -1.8270 ha         1 G7E       0.141000
     17 H4           1.3230    -0.4870     2.3900 ha         1 G7E       0.141000
     18 H6           9.1520     1.9630    -0.0950 h1         1 G7E       0.054200
     19 H7           5.6410     3.7070    -1.0910 h1         1 G7E       0.054200
     20 H8           5.7560     3.0100     0.5340 h1         1 G7E       0.054200
     21 H9           7.8860     0.3810    -1.4790 h1         1 G7E       0.066200
     22 H10          8.0360    -0.2740     0.1520 h1         1 G7E       0.066200
     23 H11          4.4160     1.5550    -0.8570 h1         1 G7E       0.066200
     24 H12          5.6510     1.4790    -2.1110 h1         1 G7E       0.066200
     25 C1          -0.1920    -0.9780     0.2190 cc         1 G7E      -0.040400
     26 C2          -1.0310    -1.9730    -0.2030 cd         1 G7E       0.300800
     27 S1          -1.1390     0.3750     0.7170 ss         1 G7E      -0.228300
     28 N1          -2.3690    -1.6940    -0.1390 nd         1 G7E      -0.643000
     29 C5          -2.5820    -0.5140     0.3230 cc         1 G7E       0.580300
     30 C6          -0.6080    -3.3240    -0.6470 c          1 G7E       0.502600
     31 C7          -1.6970    -4.2460    -1.1120 c3         1 G7E      -0.183100
     32 O1           0.5580    -3.6520    -0.6210 o          1 G7E      -0.512100
     33 N2          -3.8020     0.0880     0.5120 ns         1 G7E      -0.553400
     34 C10         -5.0210    -0.3750     0.0750 c          1 G7E       0.683100
     35 O2          -5.1760    -1.4380    -0.4790 o          1 G7E      -0.512100
     36 C12         -6.1440     0.6210     0.2860 c6         1 G7E       0.043500
     37 C13         -6.1350     1.6490    -0.8670 c6         1 G7E       0.117800
     38 N3          -7.4090    -0.0790     0.4020 n7         1 G7E      -0.780200
     39 N4          -7.2520     2.5690    -0.8000 n7         1 G7E      -0.788200
     40 C16         -8.5270     0.8540     0.4640 c6         1 G7E       0.113800
     41 C17         -8.5220     1.8680    -0.6740 c6         1 G7E       0.108800
     42 H13         -2.4570    -4.3740    -0.3410 hc         1 G7E       0.069367
     43 H14         -2.2070    -3.8220    -1.9790 hc         1 G7E       0.069367
     44 H15         -1.2820    -5.2160    -1.3780 hc         1 G7E       0.069367
     45 H16         -3.8000     0.9720     0.9990 hn         1 G7E       0.330500
     46 H17         -5.9740     1.1660     1.2240 h1         1 G7E       0.067700
     47 H18         -5.2050     2.2240    -0.8710 h1         1 G7E       0.065200
     48 H19         -6.1840     1.1080    -1.8190 h1         1 G7E       0.065200
     49 H20         -7.5260    -0.6890    -0.4000 hn         1 G7E       0.376800
     50 H21         -7.1310     3.1860    -0.0050 hn         1 G7E       0.351800
     51 H22         -9.4560     0.2810     0.4660 h1         1 G7E       0.061200
     52 H23         -8.4780     1.3850     1.4210 h1         1 G7E       0.061200
     53 H24         -9.3190     2.6020    -0.5360 h1         1 G7E       0.062700
     54 H25         -8.7250     1.3540    -1.6210 h1         1 G7E       0.062700
     55 CAX          5.5300    -0.4310     0.4590 c          1 G7E       0.684700
     56 H5           7.8820     1.9600     1.1390 h1         1 G7E       0.054200
@<TRIPOS>BOND
     1     1     3 ar  
     2     1     9 ar  
     3     1    14 1   
     4     2     4 ar  
     5     2     9 ar  
     6     2    15 1   
     7     3    10 ar  
     8     3    16 1   
     9     4    10 ar  
    10     4    17 1   
    11     5     7 1   
    12     5    13 1   
    13     5    18 1   
    14     5    56 1   
    15     6     8 1   
    16     6    13 1   
    17     6    19 1   
    18     6    20 1   
    19     7    11 1   
    20     7    21 1   
    21     7    22 1   
    22     8    11 1   
    23     8    23 1   
    24     8    24 1   
    25     9    55 1   
    26    10    25 1   
    27    11    55 1   
    28    12    55 2   
    29    25    26 2   
    30    25    27 1   
    31    26    28 1   
    32    26    30 1   
    33    27    29 1   
    34    28    29 2   
    35    29    33 1   
    36    30    31 1   
    37    30    32 2   
    38    31    42 1   
    39    31    43 1   
    40    31    44 1   
    41    33    34 1   
    42    33    45 1   
    43    34    35 2   
    44    34    36 1   
    45    36    37 1   
    46    36    38 1   
    47    36    46 1   
    48    37    39 1   
    49    37    47 1   
    50    37    48 1   
    51    38    40 1   
    52    38    49 1   
    53    39    41 1   
    54    39    50 1   
    55    40    41 1   
    56    40    51 1   
    57    40    52 1   
    58    41    53 1   
    59    41    54 1   
@<TRIPOS>SUBSTRUCTURE
     1 G7E         1 TEMP              0 ****  ****    0 ROOT
