@<TRIPOS>MOLECULE
G7E
   56    59     1     0     0
SMALL
No Charge or Current Charge


@<TRIPOS>ATOM
      1 CAE          3.2360    -0.2940    -0.9900 ca         1 G7E      -0.078500
      2 CAF          3.2350    -0.7230     1.4030 ca         1 G7E      -0.078500
      3 CAG          1.8340    -0.3870    -1.0050 ca         1 G7E      -0.085000
      4 CAH          1.8320    -0.8150     1.3840 ca         1 G7E      -0.085000
      5 CAK          8.3880     1.5070    -0.3090 c6         1 G7E       0.130600
      6 CAL          6.4550     2.9230    -0.5540 c6         1 G7E       0.130600
      7 CAM          7.6190     0.2960    -0.8980 c6         1 G7E       0.059500
      8 CAN          5.6160     1.7510    -1.1310 c6         1 G7E       0.059500
      9 CAY          3.9540    -0.4430     0.2200 ca         1 G7E      -0.132600
     10 CAZ          1.1260    -0.6500     0.1800 ca         1 G7E      -0.002000
     11 NBE          6.1430     0.4190    -0.6960 n          1 G7E      -0.410800
     12 OAD          6.0960    -1.0530     1.0680 o          1 G7E      -0.587100
     13 OAT          7.8560     2.7350    -0.8520 os         1 G7E      -0.444000
     14 H1           3.7610    -0.1230    -1.9270 ha         1 G7E       0.126500
     15 H2           3.7630    -0.8590     2.3440 ha         1 G7E       0.126500
     16 H3           1.2950    -0.2640    -1.9420 ha         1 G7E       0.123000
     17 H4           1.2930    -1.0170     2.3060 ha         1 G7E       0.123000
     18 H6           9.4550     1.4330    -0.5610 h1         1 G7E       0.054200
     19 H7           6.1190     3.8750    -0.9880 h1         1 G7E       0.054200
     20 H8           6.3220     2.9790     0.5360 h1         1 G7E       0.054200
     21 H9           7.8240     0.2360    -1.9760 h1         1 G7E       0.066200
     22 H10          8.0020    -0.6320    -0.4510 h1         1 G7E       0.066200
     23 H11          4.5760     1.8910    -0.8070 h1         1 G7E       0.066200
     24 H12          5.6280     1.8020    -2.2290 h1         1 G7E       0.066200
     25 C1          -0.3290    -0.7290     0.1610 cc         1 G7E      -0.120000
     26 C2          -1.0380    -1.9240     0.1390 cd         1 G7E       0.235500
     27 S1          -1.3510     0.6710     0.1590 ss         1 G7E      -0.083400
     28 N1          -2.4230    -1.7070     0.1430 nd         1 G7E      -0.643000
     29 C5          -2.7110    -0.4160     0.1550 cc         1 G7E       0.580300
     30 C6          -0.3870    -3.2930     0.1090 c          1 G7E       0.502600
     31 C7          -1.3230    -4.5060     0.1000 c3         1 G7E      -0.183100
     32 O1           0.8240    -3.4880     0.0870 o          1 G7E      -0.512100
     33 N2          -3.9970     0.0710     0.1660 ns         1 G7E      -0.486400
     34 C10         -5.1980    -0.6160     0.1520 c          1 G7E       0.616100
     35 O2          -5.2640    -1.8380     0.1070 o          1 G7E      -0.512100
     36 C12         -6.5180     0.2490     0.1900 c6         1 G7E       0.043500
     37 C13         -6.2800     1.7940     0.3490 c6         1 G7E       0.117800
     38 N3          -7.4450    -0.0300    -0.9770 n7         1 G7E      -0.835400
     39 N4          -7.5580     2.5560     0.4430 n7         1 G7E      -0.843400
     40 C16         -8.7160     0.7450    -0.8850 c6         1 G7E       0.113800
     41 C17         -8.4570     2.2730    -0.7110 c6         1 G7E       0.108800
     42 H13         -1.9970    -4.4410     0.9610 hc         1 G7E       0.069367
     43 H14         -2.0160    -4.4140    -0.7440 hc         1 G7E       0.069367
     44 H15         -0.7840    -5.4600     0.0790 hc         1 G7E       0.069367
     45 H16         -4.0800     1.0750     0.1840 hn         1 G7E       0.330500
     46 H17         -7.0230    -0.0870     1.1090 h1         1 G7E       0.067700
     47 H18         -5.6830     1.9860     1.2540 h1         1 G7E       0.065200
     48 H19         -5.7070     2.1680    -0.5140 h1         1 G7E       0.065200
     49 H20         -6.9690     0.2350    -1.8510 hn         1 G7E       0.432000
     50 H21         -8.0420     2.2620     1.3020 hn         1 G7E       0.407000
     51 H22         -9.3230     0.5750    -1.7880 h1         1 G7E       0.061200
     52 H23         -9.3020     0.3820    -0.0270 h1         1 G7E       0.061200
     53 H24         -9.4170     2.7930    -0.5730 h1         1 G7E       0.062700
     54 H25         -8.0040     2.6670    -1.6340 h1         1 G7E       0.062700
     55 CAX          5.4680    -0.3710     0.2660 c          1 G7E       0.617700
     56 H5           8.2920     1.5190     0.7860 h1         1 G7E       0.054200
@<TRIPOS>BOND
     1     1     3 ar  
     2     1     9 ar  
     3     1    14 1   
     4     2     4 ar  
     5     2     9 ar  
     6     2    15 1   
     7     3    10 ar  
     8     3    16 1   
     9     4    10 ar  
    10     4    17 1   
    11     5     7 1   
    12     5    13 1   
    13     5    18 1   
    14     5    56 1   
    15     6     8 1   
    16     6    13 1   
    17     6    19 1   
    18     6    20 1   
    19     7    11 1   
    20     7    21 1   
    21     7    22 1   
    22     8    11 1   
    23     8    23 1   
    24     8    24 1   
    25     9    55 1   
    26    10    25 1   
    27    11    55 1   
    28    12    55 2   
    29    25    26 2   
    30    25    27 1   
    31    26    28 1   
    32    26    30 1   
    33    27    29 1   
    34    28    29 2   
    35    29    33 1   
    36    30    31 1   
    37    30    32 2   
    38    31    42 1   
    39    31    43 1   
    40    31    44 1   
    41    33    34 1   
    42    33    45 1   
    43    34    35 2   
    44    34    36 1   
    45    36    37 1   
    46    36    38 1   
    47    36    46 1   
    48    37    39 1   
    49    37    47 1   
    50    37    48 1   
    51    38    40 1   
    52    38    49 1   
    53    39    41 1   
    54    39    50 1   
    55    40    41 1   
    56    40    51 1   
    57    40    52 1   
    58    41    53 1   
    59    41    54 1   
@<TRIPOS>SUBSTRUCTURE
     1 G7E         1 TEMP              0 ****  ****    0 ROOT
