@<TRIPOS>MOLECULE
G7F
   32    33     1     0     0
SMALL
No Charge or Current Charge


@<TRIPOS>ATOM
      1 C1         -30.2380    18.8170    -6.6780 ce         1 G7F      -0.293200
      2 C2         -29.8130    20.0520    -7.4170 c          1 G7F       0.602300
      3 C3         -31.8960    21.2400    -6.5900 c3         1 G7F       0.092300
      4 C4         -30.2430    22.4460    -8.0860 c3         1 G7F       0.065700
      5 C5         -30.7550    22.4560    -9.5080 cc         1 G7F       0.393700
      6 C6         -32.1660    22.7000   -11.2030 cd         1 G7F       0.277300
      7 C11        -33.4860    22.9890   -11.8860 c6         1 G7F      -0.100700
      8 N          -30.6190    21.2120    -7.3390 n          1 G7F      -0.408800
      9 C          -29.7950    17.5690    -6.9730 c2         1 G7F      -0.235000
     10 O          -28.8150    20.0370    -8.1240 o          1 G7F      -0.608100
     11 C10        -33.3150    23.2020   -13.4120 c6         1 G7F      -0.075400
     12 C7         -31.0380    22.3210   -11.9010 cc         1 G7F      -0.239300
     13 C8         -30.9700    22.1870   -13.4050 c6         1 G7F       0.004900
     14 C9         -32.3900    22.1210   -14.0210 c6         1 G7F      -0.072400
     15 N1         -32.0050    22.7770    -9.8290 nd         1 G7F      -0.643000
     16 S          -29.6910    22.0540   -10.8340 ss         1 G7F       0.024600
     17 H4         -30.9940    18.9390    -5.9060 ha         1 G7F       0.182000
     18 H5         -32.5400    20.4130    -6.9180 h1         1 G7F       0.043700
     19 H6         -31.6990    21.1460    -5.5150 h1         1 G7F       0.043700
     20 H7         -32.4280    22.1830    -6.7690 h1         1 G7F       0.043700
     21 H8         -29.1510    22.5540    -8.0970 h1         1 G7F       0.079200
     22 H9         -30.6410    23.3260    -7.5640 h1         1 G7F       0.079200
     23 H16        -33.9630    23.8720   -11.4410 hc         1 G7F       0.057200
     24 H17        -34.1720    22.1490   -11.7120 hc         1 G7F       0.057200
     25 H2         -30.1530    16.6910    -6.4330 ha         1 G7F       0.175500
     26 H18        -29.0620    17.3860    -7.7610 ha         1 G7F       0.175500
     27 H14        -32.8890    24.1970   -13.6020 hc         1 G7F       0.043700
     28 H15        -34.2970    23.1820   -13.9040 hc         1 G7F       0.043700
     29 H11        -30.4000    21.2930   -13.6960 hc         1 G7F       0.052200
     30 H10        -30.4310    23.0450   -13.8310 hc         1 G7F       0.052200
     31 H13        -32.3290    22.2460   -15.1110 hc         1 G7F       0.042700
     32 H12        -32.8230    21.1260   -13.8450 hc         1 G7F       0.042700
@<TRIPOS>BOND
     1     1     2 1   
     2     1     9 2   
     3     1    17 1   
     4     2     8 1   
     5     2    10 2   
     6     3     8 1   
     7     3    18 1   
     8     3    19 1   
     9     3    20 1   
    10     4     5 1   
    11     4     8 1   
    12     4    21 1   
    13     4    22 1   
    14     5    15 2   
    15     5    16 1   
    16     6     7 1   
    17     6    12 2   
    18     6    15 1   
    19     7    11 1   
    20     7    23 1   
    21     7    24 1   
    22     9    25 1   
    23     9    26 1   
    24    11    14 1   
    25    11    27 1   
    26    11    28 1   
    27    12    13 1   
    28    12    16 1   
    29    13    14 1   
    30    13    29 1   
    31    13    30 1   
    32    14    31 1   
    33    14    32 1   
@<TRIPOS>SUBSTRUCTURE
     1 G7F         1 TEMP              0 ****  ****    0 ROOT
