@<TRIPOS>MOLECULE
G7F
   32    33     1     0     0
SMALL
bcc


@<TRIPOS>ATOM
      1 C1         -29.9740    18.8920    -6.6780 ce         1 G7F      -0.243200
      2 C2         -29.7910    20.1460    -7.4570 c          1 G7F       0.669300
      3 C3         -32.0800    20.8540    -6.7920 c3         1 G7F       0.092300
      4 C4         -30.5440    22.3640    -8.0020 c3         1 G7F       0.065700
      5 C5         -30.9720    22.3810    -9.4370 cc         1 G7F       0.393700
      6 C6         -32.1580    22.8760   -11.2260 cd         1 G7F       0.342600
      7 C11        -33.2650    23.5490   -11.9730 c6         1 G7F      -0.100700
      8 N          -30.7660    21.0780    -7.3680 n          1 G7F      -0.475800
      9 C          -29.2360    17.8170    -6.9320 c2         1 G7F      -0.135000
     10 O          -28.7880    20.3370    -8.1350 o          1 G7F      -0.608100
     11 C10        -33.0050    23.4980   -13.4770 c6         1 G7F      -0.075400
     12 C7         -31.2530    22.0580   -11.8280 cc         1 G7F      -0.159700
     13 C8         -31.2320    21.7120   -13.2800 c6         1 G7F       0.004900
     14 C9         -32.5630    22.1070   -13.9210 c6         1 G7F      -0.072400
     15 N1         -31.9900    23.0450    -9.8770 nd         1 G7F      -0.643000
     16 S          -30.1340    21.4800   -10.6540 ss         1 G7F      -0.120300
     17 H4         -30.7030    18.8630    -5.8780 ha         1 G7F       0.132000
     18 H5         -32.3790    19.8120    -6.8680 h1         1 G7F       0.043700
     19 H6         -32.1260    21.1620    -5.7460 h1         1 G7F       0.043700
     20 H7         -32.8120    21.4350    -7.3500 h1         1 G7F       0.043700
     21 H8         -29.4950    22.6420    -7.9090 h1         1 G7F       0.079200
     22 H9         -31.1280    23.1160    -7.4720 h1         1 G7F       0.079200
     23 H16        -33.3640    24.5830   -11.6360 hc         1 G7F       0.057200
     24 H17        -34.2170    23.0600   -11.7390 hc         1 G7F       0.057200
     25 H2         -29.3550    16.9110    -6.3540 ha         1 G7F       0.125500
     26 H18        -28.4960    17.8010    -7.7210 ha         1 G7F       0.125500
     27 H14        -32.2270    24.2230   -13.7360 hc         1 G7F       0.043700
     28 H15        -33.9040    23.7990   -14.0170 hc         1 G7F       0.043700
     29 H11        -31.0440    20.6450   -13.4220 hc         1 G7F       0.052200
     30 H10        -30.4090    22.2360   -13.7740 hc         1 G7F       0.052200
     31 H13        -32.4650    22.0680   -15.0070 hc         1 G7F       0.042700
     32 H12        -33.3310    21.3770   -13.6480 hc         1 G7F       0.042700
@<TRIPOS>BOND
     1     1     2 1   
     2     1     9 2   
     3     1    17 1   
     4     2     8 1   
     5     2    10 2   
     6     3     8 1   
     7     3    18 1   
     8     3    19 1   
     9     3    20 1   
    10     4     5 1   
    11     4     8 1   
    12     4    21 1   
    13     4    22 1   
    14     5    15 2   
    15     5    16 1   
    16     6     7 1   
    17     6    12 2   
    18     6    15 1   
    19     7    11 1   
    20     7    23 1   
    21     7    24 1   
    22     9    25 1   
    23     9    26 1   
    24    11    14 1   
    25    11    27 1   
    26    11    28 1   
    27    12    13 1   
    28    12    16 1   
    29    13    14 1   
    30    13    29 1   
    31    13    30 1   
    32    14    31 1   
    33    14    32 1   
@<TRIPOS>SUBSTRUCTURE
     1 G7F         1 TEMP              0 ****  ****    0 ROOT
