@<TRIPOS>MOLECULE
G7G
   49    52     1     0     0
SMALL
No Charge or Current Charge


@<TRIPOS>ATOM
      1 C1           3.4340    -0.7800     0.1650 c6         1 G7G       0.359300
      2 C2           4.6810    -1.6990    -0.0370 c6         1 G7G       0.101300
      3 O2           4.5540    -2.9770     0.6400 oh         1 G7G      -0.733000
      4 C3           5.9370    -0.9340     0.4640 c6         1 G7G       0.168300
      5 O3           7.1160    -1.7340     0.2700 oh         1 G7G      -0.639000
      6 C4           6.0700     0.4350    -0.2740 c6         1 G7G       0.174300
      7 O4           7.2140     1.1510     0.2240 oh         1 G7G      -0.763000
      8 C5           4.7560     1.2540    -0.1130 c6         1 G7G      -0.020700
      9 O5           3.6260     0.4450    -0.5740 os         1 G7G      -0.426000
     10 C6           4.8810     2.6320    -0.8460 c          1 G7G       0.733000
     11 O10          2.2490    -1.4480    -0.3050 os         1 G7G      -0.344100
     12 C11         -0.0910    -1.6020    -0.6530 ca         1 G7G      -0.236000
     13 C12          0.9910    -0.9220    -0.0940 ca         1 G7G       0.266100
     14 C13          0.7530     0.2400     0.6630 ca         1 G7G      -0.314000
     15 C14         -0.5540     0.7110     0.8440 ca         1 G7G       0.258100
     16 C15         -1.6510     0.0250     0.2760 ca         1 G7G      -0.304600
     17 C16         -1.3970    -1.1350    -0.4740 ca         1 G7G       0.200100
     18 C17         -3.0820     0.4680     0.4300 c          1 G7G       0.610900
     19 C18         -4.0860    -0.3770    -0.2560 cc         1 G7G      -0.229400
     20 C19         -3.7330    -1.5010    -0.9750 cd         1 G7G       0.035100
     21 O20         -2.4140    -1.8520    -1.0530 os         1 G7G      -0.211200
     22 C21         -5.5220    -0.0890    -0.2350 ca         1 G7G      -0.053800
     23 C22         -6.0010     1.1700    -0.6510 ca         1 G7G      -0.053000
     24 C23         -7.3790     1.4460    -0.6360 ca         1 G7G      -0.180500
     25 C24         -8.2870     0.4680    -0.2060 ca         1 G7G       0.133100
     26 C25         -7.8210    -0.7880     0.2110 ca         1 G7G      -0.180500
     27 C26         -6.4420    -1.0660     0.1970 ca         1 G7G      -0.053000
     28 O27         -3.4140     1.4530     1.0790 o          1 G7G      -0.529100
     29 O28         -0.7200     1.8430     1.5800 oh         1 G7G      -0.497100
     30 O29         -9.6210     0.7450    -0.1940 oh         1 G7G      -0.538100
     31 O6A          4.3580     2.7110    -1.9520 o          1 G7G      -0.693500
     32 O6B          4.8890     3.6170    -0.1170 o          1 G7G      -0.693500
     33 H1           3.3250    -0.5570     1.2370 h2         1 G7G       0.033700
     34 H2           4.7920    -1.8650    -1.1200 h1         1 G7G       0.066700
     35 HO2          3.6820    -3.3550     0.3710 ho         1 G7G       0.509000
     36 H3           5.8030    -0.7340     1.5380 h1         1 G7G       0.038700
     37 HO3          6.8240    -2.6530     0.4710 ho         1 G7G       0.435000
     38 H4           6.2070     0.2320    -1.3480 h1         1 G7G       0.045700
     39 HO4          7.9110     0.4570     0.3440 ho         1 G7G       0.572000
     40 H5           4.6030     1.4690     0.9550 h1         1 G7G       0.027700
     41 H13          1.5780     0.7850     1.1090 ha         1 G7G       0.156000
     42 H19         -4.4010    -2.1670    -1.5130 h4         1 G7G       0.221000
     43 H22         -5.3030     1.9330    -0.9900 ha         1 G7G       0.119500
     44 H23         -7.7410     2.4190    -0.9590 ha         1 G7G       0.116000
     45 H25         -8.5180    -1.5520     0.5490 ha         1 G7G       0.116000
     46 H26         -6.0890    -2.0400     0.5290 ha         1 G7G       0.119500
     47 HO28         0.1630     2.1580     1.8600 ho         1 G7G       0.477000
     48 HO29       -10.0990    -0.0470     0.1340 ho         1 G7G       0.459000
     49 H11          0.0840    -2.5020    -1.2350 ha         1 G7G       0.142000
@<TRIPOS>BOND
     1     1     2 1   
     2     1     9 1   
     3     1    11 1   
     4     1    33 1   
     5     2     3 1   
     6     2     4 1   
     7     2    34 1   
     8     3    35 1   
     9     4     5 1   
    10     4     6 1   
    11     4    36 1   
    12     5    37 1   
    13     6     7 1   
    14     6     8 1   
    15     6    38 1   
    16     7    39 1   
    17     8     9 1   
    18     8    10 1   
    19     8    40 1   
    20    10    31 1   
    21    10    32 1   
    22    11    13 1   
    23    12    13 ar  
    24    12    17 ar  
    25    12    49 1   
    26    13    14 ar  
    27    14    15 ar  
    28    14    41 1   
    29    15    16 ar  
    30    15    29 1   
    31    16    17 ar  
    32    16    18 1   
    33    17    21 1   
    34    18    19 1   
    35    18    28 2   
    36    19    20 2   
    37    19    22 1   
    38    20    21 1   
    39    20    42 1   
    40    22    23 ar  
    41    22    27 ar  
    42    23    24 ar  
    43    23    43 1   
    44    24    25 ar  
    45    24    44 1   
    46    25    26 ar  
    47    25    30 1   
    48    26    27 ar  
    49    26    45 1   
    50    27    46 1   
    51    29    47 1   
    52    30    48 1   
@<TRIPOS>SUBSTRUCTURE
     1 G7G         1 TEMP              0 ****  ****    0 ROOT
