@<TRIPOS>MOLECULE
G7G
   49    52     1     0     0
SMALL
bcc


@<TRIPOS>ATOM
      1 C1           3.3470    -0.6440    -0.0120 c6         1 G7G       0.312900
      2 C2           4.4430    -1.7020    -0.0980 c6         1 G7G       0.078100
      3 O2           4.0680    -2.8890     0.5530 oh         1 G7G      -0.610800
      4 C3           5.6950    -1.1710     0.5930 c6         1 G7G       0.145100
      5 O3           6.7820    -2.0470     0.4360 oh         1 G7G      -0.576800
      6 C4           6.0760     0.1840     0.0190 c6         1 G7G       0.151100
      7 O4           7.1410     0.7170     0.7550 oh         1 G7G      -0.640800
      8 C5           4.8560     1.1240     0.0690 c6         1 G7G      -0.043900
      9 O5           3.7590     0.5460    -0.6040 os         1 G7G      -0.379600
     10 C6           5.1730     2.5010    -0.5470 c          1 G7G       0.943600
     11 O10          2.2460    -1.1210    -0.7320 os         1 G7G      -0.320900
     12 C11         -0.0360    -1.3960    -0.9850 ca         1 G7G      -0.254000
     13 C12          1.0120    -0.6440    -0.4800 ca         1 G7G       0.266100
     14 C13          0.7680     0.5280     0.2350 ca         1 G7G      -0.332000
     15 C14         -0.5360     0.9350     0.4760 ca         1 G7G       0.258100
     16 C15         -1.6350     0.1910    -0.0120 ca         1 G7G      -0.304600
     17 C16         -1.3270    -0.9630    -0.7460 ca         1 G7G       0.200100
     18 C17         -3.0350     0.5560     0.2220 c          1 G7G       0.610900
     19 C18         -4.0130    -0.3600    -0.3750 cc         1 G7G      -0.229400
     20 C19         -3.5840    -1.4250    -1.0710 cd         1 G7G       0.085100
     21 O20         -2.3020    -1.7410    -1.2610 os         1 G7G      -0.211200
     22 C21         -5.4580    -0.1400    -0.1870 ca         1 G7G      -0.053800
     23 C22         -6.0610     1.0750    -0.5230 ca         1 G7G      -0.071000
     24 C23         -7.4240     1.2610    -0.3840 ca         1 G7G      -0.198500
     25 C24         -8.2250     0.2300     0.1060 ca         1 G7G       0.133100
     26 C25         -7.6390    -0.9830     0.4530 ca         1 G7G      -0.198500
     27 C26         -6.2710    -1.1560     0.3090 ca         1 G7G      -0.071000
     28 O27         -3.3890     1.5290     0.8700 o          1 G7G      -0.529100
     29 O28         -0.7780     2.0490     1.1670 oh         1 G7G      -0.458100
     30 O29         -9.5470     0.4620     0.2220 oh         1 G7G      -0.499100
     31 O6A          4.3450     3.0200    -1.2960 o          1 G7G      -0.798800
     32 O6B          6.2820     2.9810    -0.1930 o          1 G7G      -0.798800
     33 H1           3.0700    -0.4860     1.0450 h2         1 G7G       0.033700
     34 H2           4.6690    -1.8770    -1.1600 h1         1 G7G       0.066700
     35 HO2          3.4600    -3.3780    -0.0100 ho         1 G7G       0.410000
     36 H3           5.4570    -1.0290     1.6610 h1         1 G7G       0.038700
     37 HO3          6.5440    -2.8920     0.8320 ho         1 G7G       0.396000
     38 H4           6.3490     0.0420    -1.0410 h1         1 G7G       0.045700
     39 HO4          7.1050     1.6770     0.5360 ho         1 G7G       0.473000
     40 H5           4.6040     1.2880     1.1310 h1         1 G7G       0.027700
     41 H13          1.5800     1.1500     0.5880 ha         1 G7G       0.174000
     42 H19         -4.2440    -2.1340    -1.5530 h4         1 G7G       0.171000
     43 H22         -5.4650     1.8840    -0.9230 ha         1 G7G       0.137500
     44 H23         -7.8750     2.2050    -0.6620 ha         1 G7G       0.134000
     45 H25         -8.2440    -1.7940     0.8440 ha         1 G7G       0.134000
     46 H26         -5.8310    -2.1020     0.6020 ha         1 G7G       0.137500
     47 HO28         0.0540     2.4550     1.4400 ho         1 G7G       0.438000
     48 HO29        -9.9970    -0.3200     0.5590 ho         1 G7G       0.420000
     49 H11          0.1470    -2.3050    -1.5430 ha         1 G7G       0.160000
@<TRIPOS>BOND
     1     1     2 1   
     2     1     9 1   
     3     1    11 1   
     4     1    33 1   
     5     2     3 1   
     6     2     4 1   
     7     2    34 1   
     8     3    35 1   
     9     4     5 1   
    10     4     6 1   
    11     4    36 1   
    12     5    37 1   
    13     6     7 1   
    14     6     8 1   
    15     6    38 1   
    16     7    39 1   
    17     8     9 1   
    18     8    10 1   
    19     8    40 1   
    20    10    31 1   
    21    10    32 1   
    22    11    13 1   
    23    12    13 ar  
    24    12    17 ar  
    25    12    49 1   
    26    13    14 ar  
    27    14    15 ar  
    28    14    41 1   
    29    15    16 ar  
    30    15    29 1   
    31    16    17 ar  
    32    16    18 1   
    33    17    21 1   
    34    18    19 1   
    35    18    28 2   
    36    19    20 2   
    37    19    22 1   
    38    20    21 1   
    39    20    42 1   
    40    22    23 ar  
    41    22    27 ar  
    42    23    24 ar  
    43    23    43 1   
    44    24    25 ar  
    45    24    44 1   
    46    25    26 ar  
    47    25    30 1   
    48    26    27 ar  
    49    26    45 1   
    50    27    46 1   
    51    29    47 1   
    52    30    48 1   
@<TRIPOS>SUBSTRUCTURE
     1 G7G         1 TEMP              0 ****  ****    0 ROOT
