@<TRIPOS>MOLECULE
G7H
   52    55     1     0     0
SMALL
No Charge or Current Charge


@<TRIPOS>ATOM
      1 N           -6.9300     0.3510     0.7510 n7         1 G7H      -0.835400
      2 CA          -5.9790     0.0850    -0.4000 c6         1 G7H       0.042500
      3 C           -4.5720     0.7760    -0.2130 c          1 G7H       0.617100
      4 O           -4.4990     1.9860    -0.0370 o          1 G7H      -0.514100
      5 CB          -5.9120    -1.4530    -0.7160 c6         1 G7H       0.116800
      6 CAE          2.3140    -0.4360     1.1930 ca         1 G7H      -0.052000
      7 CAF          2.4930     0.2560    -1.1210 ca         1 G7H      -0.052000
      8 CAG          3.6940    -0.6990     1.2190 ca         1 G7H      -0.146500
      9 CAH          3.8750    -0.0050    -1.0920 ca         1 G7H      -0.146500
     10 CAI          7.9360    -1.8900     0.4460 c5         1 G7H      -0.092400
     11 CAJ         -8.1840    -1.7750     0.1940 c6         1 G7H       0.108800
     12 CAK         -8.2750    -0.2520     0.5220 c6         1 G7H       0.112800
     13 CAL          8.2350    -0.4230     0.0550 c5         1 G7H      -0.169400
     14 CAM          6.5110    -1.7270     1.0540 c5         1 G7H       0.094000
     15 CAT          0.5080     2.8290     0.3230 c          1 G7H       0.503600
     16 CAU          6.9020     0.0590    -0.5140 c          1 G7H       0.568000
     17 CAW          1.7060     0.0410     0.0220 ca         1 G7H      -0.050000
     18 CAX          4.4890    -0.5430     0.0610 ca         1 G7H       0.001000
     19 CAY         -2.1280     0.2780    -0.1350 cc         1 G7H       0.572300
     20 CAZ         -0.2950     1.5600     0.1150 cd         1 G7H       0.223500
     21 CBA          0.2710     0.2970    -0.0090 cc         1 G7H      -0.094000
     22 NAO         -1.6930     1.5160     0.0310 nd         1 G7H      -0.639000
     23 NAP         -7.2620    -2.0430    -0.9460 n7         1 G7H      -0.842400
     24 NAR         -3.4600    -0.0470    -0.2520 ns         1 G7H      -0.487400
     25 NBC          5.9240    -0.6770     0.1890 n          1 G7H      -0.233400
     26 OAB          1.7310     2.8720     0.4180 o          1 G7H      -0.514100
     27 SAS         -0.9070    -0.9610    -0.2010 ss         1 G7H      -0.092400
     28 H1          -6.5350    -0.0580     1.6090 hn         1 G7H       0.432000
     29 H3          -6.3910     0.5720    -1.2970 h1         1 G7H       0.069700
     30 H4          -5.2930    -1.6210    -1.6120 h1         1 G7H       0.064200
     31 H5          -5.4330    -1.9800     0.1240 h1         1 G7H       0.064200
     32 H6          -1.0230     4.0450     1.2250 hc         1 G7H       0.068367
     33 H7           0.3650     5.0130     0.5740 hc         1 G7H       0.068367
     34 H8          -0.9090     4.2460    -0.4650 hc         1 G7H       0.068367
     35 H9           1.7180    -0.5890     2.0900 ha         1 G7H       0.120000
     36 H10          2.0350     0.6340    -2.0320 ha         1 G7H       0.120000
     37 H11          4.1410    -1.0290     2.1530 ha         1 G7H       0.128500
     38 H12          4.4440     0.1750    -1.9980 ha         1 G7H       0.128500
     39 H13          7.9180    -2.5420    -0.4360 hc         1 G7H       0.060200
     40 H14          8.6580    -2.3070     1.1580 hc         1 G7H       0.060200
     41 H15         -7.8300    -2.3140     1.0860 h1         1 G7H       0.062200
     42 H16         -9.1880    -2.1590    -0.0400 h1         1 G7H       0.062200
     43 H17         -8.9060    -0.1050     1.4120 h1         1 G7H       0.060700
     44 H18         -8.7680     0.2650    -0.3150 h1         1 G7H       0.060700
     45 H19          8.4360     0.1470     0.9690 hc         1 G7H       0.080700
     46 H20          9.0560    -0.2760    -0.6540 hc         1 G7H       0.080700
     47 H21          5.9380    -2.6630     1.0180 h1         1 G7H       0.052700
     48 H22          6.5570    -1.3850     2.0970 h1         1 G7H       0.052700
     49 H23         -7.6620    -1.6060    -1.7870 hn         1 G7H       0.407000
     50 H25         -3.6580    -1.0260    -0.3830 hn         1 G7H       0.329500
     51 OAC          6.7220     0.7890    -1.4790 o          1 G7H      -0.519000
     52 CAA         -0.2790     4.1390     0.4260 c3         1 G7H      -0.183100
@<TRIPOS>BOND
     1     1     2 1   
     2     1    12 1   
     3     1    28 1   
     4     2     3 1   
     5     2     5 1   
     6     2    29 1   
     7     3     4 2   
     8     3    24 1   
     9     5    23 1   
    10     5    30 1   
    11     5    31 1   
    12     6     8 ar  
    13     6    17 ar  
    14     6    35 1   
    15     7     9 ar  
    16     7    17 ar  
    17     7    36 1   
    18     8    18 ar  
    19     8    37 1   
    20     9    18 ar  
    21     9    38 1   
    22    10    13 1   
    23    10    14 1   
    24    10    39 1   
    25    10    40 1   
    26    11    12 1   
    27    11    23 1   
    28    11    41 1   
    29    11    42 1   
    30    12    43 1   
    31    12    44 1   
    32    13    16 1   
    33    13    45 1   
    34    13    46 1   
    35    14    25 1   
    36    14    47 1   
    37    14    48 1   
    38    15    20 1   
    39    15    26 2   
    40    15    52 1   
    41    16    25 1   
    42    16    51 2   
    43    17    21 1   
    44    18    25 1   
    45    19    22 2   
    46    19    24 1   
    47    19    27 1   
    48    20    21 2   
    49    20    22 1   
    50    21    27 1   
    51    23    49 1   
    52    24    50 1   
    53    32    52 1   
    54    33    52 1   
    55    34    52 1   
@<TRIPOS>SUBSTRUCTURE
     1 G7H         1 TEMP              0 ****  ****    0 ROOT
