@<TRIPOS>MOLECULE
G7H
   52    55     1     0     0
SMALL
bcc


@<TRIPOS>ATOM
      1 N           -6.8980     0.4950    -0.5120 n7         1 G7H      -0.780200
      2 CA          -5.7060    -0.3270    -0.4530 c6         1 G7H       0.042500
      3 C           -4.4850     0.5430    -0.2340 c          1 G7H       0.684100
      4 O           -4.5290     1.6190     0.3140 o          1 G7H      -0.514100
      5 CB          -5.7710    -1.3970     0.6620 c6         1 G7H       0.116800
      6 CAE          2.2700    -0.8000     0.7040 ca         1 G7H      -0.070000
      7 CAF          2.7330     1.0070    -0.7900 ca         1 G7H      -0.070000
      8 CAG          3.6170    -1.1180     0.7400 ca         1 G7H      -0.164500
      9 CAH          4.0780     0.6930    -0.7700 ca         1 G7H      -0.164500
     10 CAI          7.7700    -2.1340     0.0570 c5         1 G7H      -0.092400
     11 CAJ         -8.1700    -1.3660     0.5360 c6         1 G7H       0.108800
     12 CAK         -8.1040    -0.3220    -0.5720 c6         1 G7H       0.112800
     13 CAL          8.2180    -0.6820     0.1400 c5         1 G7H      -0.169400
     14 CAM          6.3070    -2.0680     0.4800 c5         1 G7H       0.094000
     15 CAT          0.1840     3.0050     0.5760 c          1 G7H       0.503600
     16 CAU          6.9570     0.1100    -0.1140 c          1 G7H       0.710500
     17 CAW          1.8060     0.2740    -0.0510 ca         1 G7H      -0.050000
     18 CAX          4.5440    -0.3730     0.0090 ca         1 G7H       0.093600
     19 CAY         -2.0420     0.4060    -0.4200 cc         1 G7H       0.572300
     20 CAZ         -0.3540     1.7090     0.1010 cd         1 G7H       0.288800
     21 CBA          0.3730     0.5670    -0.1120 cc         1 G7H      -0.014400
     22 NAO         -1.7060     1.6010    -0.0890 nd         1 G7H      -0.639000
     23 NAP         -6.9760    -2.1980     0.5960 n7         1 G7H      -0.787200
     24 NAR         -3.3180    -0.0520    -0.6510 ns         1 G7H      -0.554400
     25 NBC          5.8930    -0.7370     0.0440 n          1 G7H      -0.393000
     26 OAB          1.3580     3.1390     0.8460 o          1 G7H      -0.514100
     27 SAS         -0.7100    -0.7050    -0.5500 ss         1 G7H      -0.237300
     28 H1          -6.9370     1.0870     0.3110 hn         1 G7H       0.376800
     29 H3          -5.6110    -0.8510    -1.4130 h1         1 G7H       0.069700
     30 H4          -4.9030    -2.0590     0.6170 h1         1 G7H       0.064200
     31 H5          -5.7420    -0.8930     1.6350 h1         1 G7H       0.064200
     32 H6          -1.6450     3.8330     1.3430 hc         1 G7H       0.068367
     33 H7          -0.3230     5.0060     1.1350 hc         1 G7H       0.068367
     34 H8          -1.2240     4.3800    -0.2610 hc         1 G7H       0.068367
     35 H9           1.5790    -1.3910     1.2910 ha         1 G7H       0.138000
     36 H10          2.3970     1.8240    -1.4150 ha         1 G7H       0.138000
     37 H11          3.9340    -1.9510     1.3510 ha         1 G7H       0.146500
     38 H12          4.7540     1.2690    -1.3810 ha         1 G7H       0.146500
     39 H13          7.8450    -2.4950    -0.9690 hc         1 G7H       0.060200
     40 H14          8.3460    -2.8020     0.6940 hc         1 G7H       0.060200
     41 H15         -8.2800    -0.8610     1.5030 h1         1 G7H       0.062200
     42 H16         -9.0440    -2.0080     0.4100 h1         1 G7H       0.062200
     43 H17         -8.9720     0.3400    -0.5310 h1         1 G7H       0.060700
     44 H18         -8.1310    -0.8230    -1.5460 h1         1 G7H       0.060700
     45 H19          8.5790    -0.4270     1.1410 hc         1 G7H       0.080700
     46 H20          9.0000    -0.4090    -0.5680 hc         1 G7H       0.080700
     47 H21          5.6940    -2.8330     0.0050 h1         1 G7H       0.052700
     48 H22          6.2000    -2.1710     1.5640 h1         1 G7H       0.052700
     49 H23         -6.9400    -2.7900    -0.2260 hn         1 G7H       0.351800
     50 H25         -3.4010    -0.9440    -1.1170 hn         1 G7H       0.329500
     51 OAC          6.8950     1.2930    -0.3770 o          1 G7H      -0.594500
     52 CAA         -0.8050     4.1270     0.7150 c3         1 G7H      -0.183100
@<TRIPOS>BOND
     1     1     2 1   
     2     1    12 1   
     3     1    28 1   
     4     2     3 1   
     5     2     5 1   
     6     2    29 1   
     7     3     4 2   
     8     3    24 1   
     9     5    23 1   
    10     5    30 1   
    11     5    31 1   
    12     6     8 ar  
    13     6    17 ar  
    14     6    35 1   
    15     7     9 ar  
    16     7    17 ar  
    17     7    36 1   
    18     8    18 ar  
    19     8    37 1   
    20     9    18 ar  
    21     9    38 1   
    22    10    13 1   
    23    10    14 1   
    24    10    39 1   
    25    10    40 1   
    26    11    12 1   
    27    11    23 1   
    28    11    41 1   
    29    11    42 1   
    30    12    43 1   
    31    12    44 1   
    32    13    16 1   
    33    13    45 1   
    34    13    46 1   
    35    14    25 1   
    36    14    47 1   
    37    14    48 1   
    38    15    20 1   
    39    15    26 2   
    40    15    52 1   
    41    16    25 1   
    42    16    51 2   
    43    17    21 1   
    44    18    25 1   
    45    19    22 2   
    46    19    24 1   
    47    19    27 1   
    48    20    21 2   
    49    20    22 1   
    50    21    27 1   
    51    23    49 1   
    52    24    50 1   
    53    32    52 1   
    54    33    52 1   
    55    34    52 1   
@<TRIPOS>SUBSTRUCTURE
     1 G7H         1 TEMP              0 ****  ****    0 ROOT
