@<TRIPOS>MOLECULE
G7J
   18    19     1     0     0
SMALL
bcc


@<TRIPOS>ATOM
      1 N1          -2.2360     1.0100     0.0210 nu         1 G7J      -0.763000
      2 C2          -3.1110    -0.1330     0.0050 c5         1 G7J       0.234000
      3 C3          -2.1550    -1.2700    -0.0300 c2         1 G7J      -0.166200
      4 C4           0.3810    -1.4700    -0.0520 cc         1 G7J      -0.187000
      5 C5           1.4880    -0.7040    -0.0400 cd         1 G7J       0.050900
      6 C6           1.4450     0.7950    -0.0020 c          1 G7J       0.559500
      7 C7           0.1820     1.4360     0.0220 cd         1 G7J      -0.394200
      8 C8          -0.9500     0.6550     0.0080 cc         1 G7J       0.250000
      9 C9          -0.8920    -0.8060    -0.0280 cc         1 G7J      -0.044000
     10 O1           2.7210    -1.2080    -0.0600 oh         1 G7J      -0.482100
     11 O2           2.5450     1.3660     0.0050 o          1 G7J      -0.585100
     12 HN1         -2.5640     1.9610     0.0600 hn         1 G7J       0.461800
     13 H2          -3.7520    -0.1640     0.8920 h1         1 G7J       0.069200
     14 H1          -3.7740    -0.1250    -0.8670 h1         1 G7J       0.069200
     15 H3          -2.4680    -2.3040    -0.0540 ha         1 G7J       0.161000
     16 H4           0.4330    -2.5510    -0.0780 ha         1 G7J       0.155000
     17 H7           0.1290     2.5170     0.0480 ha         1 G7J       0.156000
     18 H1O          3.3240    -0.4420    -0.0440 ho         1 G7J       0.456000
@<TRIPOS>BOND
     1     1     2 1   
     2     1     8 1   
     3     1    12 1   
     4     2     3 1   
     5     2    13 1   
     6     2    14 1   
     7     3     9 2   
     8     3    15 1   
     9     4     5 2   
    10     4     9 1   
    11     4    16 1   
    12     5     6 1   
    13     5    10 1   
    14     6     7 1   
    15     6    11 2   
    16     7     8 2   
    17     7    17 1   
    18     8     9 1   
    19    10    18 1   
@<TRIPOS>SUBSTRUCTURE
     1 G7J         1 TEMP              0 ****  ****    0 ROOT
