@<TRIPOS>MOLECULE
G7J
   18    19     1     0     0
SMALL
No Charge or Current Charge


@<TRIPOS>ATOM
      1 N1          -2.2810     1.0510    -0.0850 nu         1 G7J      -0.818200
      2 C2          -3.1690    -0.1380    -0.0300 c5         1 G7J       0.234000
      3 C3          -2.1430    -1.2460    -0.0580 c2         1 G7J      -0.216200
      4 C4           0.3510    -1.4580    -0.0470 cc         1 G7J      -0.237000
      5 C5           1.5100    -0.7100    -0.0290 cd         1 G7J       0.050900
      6 C6           1.4920     0.8050    -0.0210 c          1 G7J       0.559500
      7 C7           0.1620     1.4420    -0.0380 cd         1 G7J      -0.444200
      8 C8          -0.9630     0.6750    -0.0690 cc         1 G7J       0.250000
      9 C9          -0.8900    -0.7470    -0.0660 cc         1 G7J      -0.044000
     10 O1           2.7440    -1.2810    -0.0100 oh         1 G7J      -0.521100
     11 O2           2.5190     1.4740    -0.0000 o          1 G7J      -0.585100
     12 HN1         -2.5100     1.9340     0.3790 hn         1 G7J       0.517000
     13 H2          -3.7750    -0.1690     0.8870 h1         1 G7J       0.069200
     14 H1          -3.8510    -0.1930    -0.8910 h1         1 G7J       0.069200
     15 H3          -2.3540    -2.3150    -0.0430 ha         1 G7J       0.211000
     16 H4           0.3670    -2.5440    -0.0420 ha         1 G7J       0.205000
     17 H7           0.1430     2.5230    -0.0340 ha         1 G7J       0.206000
     18 H1O          3.3940    -0.5400     0.0030 ho         1 G7J       0.495000
@<TRIPOS>BOND
     1     1     2 1   
     2     1     8 1   
     3     1    12 1   
     4     2     3 1   
     5     2    13 1   
     6     2    14 1   
     7     3     9 2   
     8     3    15 1   
     9     4     5 2   
    10     4     9 1   
    11     4    16 1   
    12     5     6 1   
    13     5    10 1   
    14     6     7 1   
    15     6    11 2   
    16     7     8 2   
    17     7    17 1   
    18     8     9 1   
    19    10    18 1   
@<TRIPOS>SUBSTRUCTURE
     1 G7J         1 TEMP              0 ****  ****    0 ROOT
