@<TRIPOS>MOLECULE
G7K
   59    63     1     0     0
SMALL
No Charge or Current Charge


@<TRIPOS>ATOM
      1 C01         -7.8700     0.0270    -1.3460 c3         1 G7K       0.158900
      2 O05         -7.4740    -1.3480    -1.5190 os         1 G7K      -0.457300
      3 C06         -6.1760    -1.7470    -1.3010 ca         1 G7K       0.585300
      4 C07         -5.8700    -3.1080    -1.4920 ca         1 G7K      -0.178000
      5 C09         -4.5550    -3.5670    -1.2800 ca         1 G7K      -0.004000
      6 C11         -3.5910    -2.6290    -0.8820 ca         1 G7K       0.043400
      7 N12         -2.2530    -2.9350    -0.6360 nc         1 G7K      -0.596100
      8 C13         -1.6930    -1.7810    -0.2910 cd         1 G7K       0.590100
      9 N14         -0.3740    -1.8830    -0.0000 nu         1 G7K      -0.847100
     10 C16          0.6110    -0.9910     0.3850 ca         1 G7K       0.421900
     11 C17          1.9000    -1.4530     0.6650 ca         1 G7K      -0.298000
     12 C19          2.8690    -0.5080     1.0580 ca         1 G7K       0.124300
     13 N20          2.5470     0.8020     1.1460 nb         1 G7K      -0.258000
     14 C21          1.2810     1.1360     0.8540 ca         1 G7K       0.436900
     15 N22          0.9830     2.4860     0.9540 nu         1 G7K      -0.915100
     16 C24         -0.3390     3.1000     0.7440 c6         1 G7K       0.242500
     17 C26         -0.1630     4.6150     0.4670 c6         1 G7K      -0.090400
     18 C29         -1.5350     5.3170     0.2950 c6         1 G7K      -0.091900
     19 C32         -2.4430     5.0920     1.5310 c6         1 G7K       0.168300
     20 O34         -3.7190     5.6940     1.3090 oh         1 G7K      -0.657000
     21 C36         -2.6140     3.5780     1.8180 c6         1 G7K      -0.091900
     22 C39         -1.2400     2.8790     1.9880 c6         1 G7K      -0.090400
     23 N42          0.2980     0.3050     0.4750 nb         1 G7K      -0.317000
     24 C43          4.3180    -0.9190     1.3620 c3         1 G7K       0.196000
     25 F44          4.9260    -0.0200     2.1760 f          1 G7K      -0.107500
     26 F45          4.3400    -2.0810     2.0580 f          1 G7K      -0.107500
     27 C46          5.0950    -1.0530     0.0450 ca         1 G7K      -0.153300
     28 C47          5.6410     0.0950    -0.5720 ca         1 G7K      -0.039500
     29 C49          6.3390    -0.0150    -1.7870 ca         1 G7K      -0.160500
     30 C51          6.4910    -1.2680    -2.3960 ca         1 G7K       0.189000
     31 F52          7.1600    -1.3710    -3.5650 f          1 G7K      -0.176000
     32 C53          5.9460    -2.4140    -1.8010 ca         1 G7K      -0.160500
     33 C55          5.2470    -2.3090    -0.5850 ca         1 G7K      -0.039500
     34 S57         -2.6670    -0.2860    -0.2220 ss         1 G7K      -0.072500
     35 C58         -3.9950    -1.3070    -0.7210 ca         1 G7K       0.359300
     36 N59         -5.2480    -0.8420    -0.9170 nb         1 G7K      -0.719000
     37 H1          -7.3090     0.6850    -2.0220 h1         1 G7K       0.047700
     38 H2          -8.9380     0.1470    -1.5660 h1         1 G7K       0.047700
     39 H3          -7.6970     0.3580    -0.3140 h1         1 G7K       0.047700
     40 H4          -6.6510    -3.7950    -1.8000 ha         1 G7K       0.140000
     41 H5          -4.2930    -4.6130    -1.4210 ha         1 G7K       0.137000
     42 H6          -0.0690    -2.8450    -0.0870 hn         1 G7K       0.524000
     43 H7           2.1480    -2.5070     0.5800 ha         1 G7K       0.152000
     44 H8           1.7590     3.0780     1.2480 hn         1 G7K       0.510000
     45 H9          -0.8310     2.6560    -0.1370 h1         1 G7K       0.079700
     46 H10          0.3880     5.0880     1.2920 hc         1 G7K       0.050950
     47 H11          0.4410     4.7620    -0.4390 hc         1 G7K       0.050950
     48 H12         -1.3830     6.3930     0.1370 hc         1 G7K       0.055950
     49 H13         -2.0330     4.9360    -0.6080 hc         1 G7K       0.055950
     50 H14         -1.9610     5.5580     2.4030 h1         1 G7K       0.026700
     51 H15         -4.2210     5.6100     2.1490 ho         1 G7K       0.443000
     52 H16         -3.2150     3.4320     2.7260 hc         1 G7K       0.055950
     53 H17         -3.1680     3.1010     0.9970 hc         1 G7K       0.055950
     54 H18         -1.3970     1.8050     2.1570 hc         1 G7K       0.050950
     55 H19         -0.7390     3.2660     2.8860 hc         1 G7K       0.050950
     56 H20          5.5220     1.0740    -0.1130 ha         1 G7K       0.129000
     57 H21          6.7590     0.8700    -2.2570 ha         1 G7K       0.135000
     58 H22          6.0630    -3.3810    -2.2820 ha         1 G7K       0.135000
     59 H23          4.8230    -3.2070    -0.1410 ha         1 G7K       0.129000
@<TRIPOS>BOND
     1     1     2 1   
     2     1    37 1   
     3     1    38 1   
     4     1    39 1   
     5     2     3 1   
     6     3     4 ar  
     7     3    36 ar  
     8     4     5 ar  
     9     4    40 1   
    10     5     6 ar  
    11     5    41 1   
    12     6     7 1   
    13     6    35 ar  
    14     7     8 2   
    15     8     9 1   
    16     8    34 1   
    17     9    10 1   
    18     9    42 1   
    19    10    11 ar  
    20    10    23 ar  
    21    11    12 ar  
    22    11    43 1   
    23    12    13 ar  
    24    12    24 1   
    25    13    14 ar  
    26    14    15 1   
    27    14    23 ar  
    28    15    16 1   
    29    15    44 1   
    30    16    17 1   
    31    16    22 1   
    32    16    45 1   
    33    17    18 1   
    34    17    46 1   
    35    17    47 1   
    36    18    19 1   
    37    18    48 1   
    38    18    49 1   
    39    19    20 1   
    40    19    21 1   
    41    19    50 1   
    42    20    51 1   
    43    21    22 1   
    44    21    52 1   
    45    21    53 1   
    46    22    54 1   
    47    22    55 1   
    48    24    25 1   
    49    24    26 1   
    50    24    27 1   
    51    27    28 ar  
    52    27    33 ar  
    53    28    29 ar  
    54    28    56 1   
    55    29    30 ar  
    56    29    57 1   
    57    30    31 1   
    58    30    32 ar  
    59    32    33 ar  
    60    32    58 1   
    61    33    59 1   
    62    34    35 1   
    63    35    36 ar  
@<TRIPOS>SUBSTRUCTURE
     1 G7K         1 TEMP              0 ****  ****    0 ROOT
