@<TRIPOS>MOLECULE
G7K
   59    63     1     0     0
SMALL
bcc


@<TRIPOS>ATOM
      1 C01         -7.4920     0.9820    -0.1630 c3         1 G7K       0.135700
      2 O05         -7.5720    -0.4360    -0.2020 os         1 G7K      -0.434100
      3 C06         -6.4320    -1.1280    -0.1930 ca         1 G7K       0.650600
      4 C07         -6.5400    -2.5330    -0.2340 ca         1 G7K      -0.261300
      5 C09         -5.3940    -3.2920    -0.2290 ca         1 G7K      -0.022000
      6 C11         -4.1620    -2.6330    -0.1850 ca         1 G7K      -0.021900
      7 N12         -2.9110    -3.1930    -0.1730 nc         1 G7K      -0.596100
      8 C13         -2.0050    -2.2750    -0.1330 cd         1 G7K       0.590100
      9 N14         -0.6810    -2.6090    -0.1190 nu         1 G7K      -0.791900
     10 C16          0.3910    -1.7700    -0.0150 ca         1 G7K       0.750200
     11 C17          1.6840    -2.2970     0.0660 ca         1 G7K      -0.446600
     12 C19          2.6850    -1.3550     0.1870 ca         1 G7K       0.452600
     13 N20          2.4740    -0.0520     0.2150 nb         1 G7K      -0.784000
     14 C21          1.1970     0.3450     0.1140 ca         1 G7K       0.962900
     15 N22          0.9790     1.6650     0.1160 nu         1 G7K      -0.859900
     16 C24         -0.3080     2.3080    -0.0390 c6         1 G7K       0.242500
     17 C26         -0.1120     3.6750    -0.6860 c6         1 G7K      -0.090400
     18 C29         -1.4460     4.3850    -0.8820 c6         1 G7K      -0.091900
     19 C32         -2.1890     4.5250     0.4380 c6         1 G7K       0.145100
     20 O34         -3.4090     5.1920     0.1870 oh         1 G7K      -0.594800
     21 C36         -2.3960     3.1520     1.0690 c6         1 G7K      -0.091900
     22 C39         -1.0600     2.4470     1.2850 c6         1 G7K      -0.090400
     23 N42          0.1480    -0.4740     0.0020 nb         1 G7K      -0.843000
     24 C43          4.1300    -1.8010     0.3250 c3         1 G7K       0.438600
     25 F44          4.2760    -2.3280     1.5740 f          1 G7K      -0.228800
     26 F45          4.3440    -2.8350    -0.5380 f          1 G7K      -0.228800
     27 C46          5.1530    -0.7290     0.0890 ca         1 G7K      -0.153300
     28 C47          5.7280    -0.0430     1.1500 ca         1 G7K      -0.057500
     29 C49          6.6570     0.9610     0.9180 ca         1 G7K      -0.178500
     30 C51          6.9910     1.2640    -0.3870 ca         1 G7K       0.153900
     31 F52          7.8880     2.2330    -0.6180 f          1 G7K      -0.140900
     32 C53          6.4280     0.6050    -1.4630 ca         1 G7K      -0.178500
     33 C55          5.5030    -0.3960    -1.2150 ca         1 G7K      -0.057500
     34 S57         -2.5690    -0.6150    -0.1010 ss         1 G7K      -0.072500
     35 C58         -4.1940    -1.2420    -0.1510 ca         1 G7K       0.424600
     36 N59         -5.2830    -0.4900    -0.1510 nb         1 G7K      -0.719000
     37 H1          -6.9550     1.3810    -1.0250 h1         1 G7K       0.047700
     38 H2          -8.5180     1.3390    -0.1850 h1         1 G7K       0.047700
     39 H3          -7.0060     1.3350     0.7470 h1         1 G7K       0.047700
     40 H4          -7.5160    -2.9970    -0.2680 ha         1 G7K       0.158000
     41 H5          -5.4440    -4.3730    -0.2560 ha         1 G7K       0.155000
     42 H6          -0.5020    -3.6040    -0.1140 hn         1 G7K       0.468800
     43 H7           1.8650    -3.3620     0.0540 ha         1 G7K       0.170000
     44 H8           1.7910     2.2480     0.2500 hn         1 G7K       0.454800
     45 H9          -0.9130     1.6940    -0.7130 h1         1 G7K       0.079700
     46 H10          0.5370     4.2850    -0.0470 hc         1 G7K       0.050950
     47 H11          0.3990     3.5640    -1.6450 hc         1 G7K       0.050950
     48 H12         -1.2790     5.3690    -1.3270 hc         1 G7K       0.055950
     49 H13         -2.0660     3.8140    -1.5830 hc         1 G7K       0.055950
     50 H14         -1.5570     5.1190     1.1180 h1         1 G7K       0.026700
     51 H15         -3.8800     5.2780     1.0210 ho         1 G7K       0.404000
     52 H16         -2.9290     3.2460     2.0200 hc         1 G7K       0.055950
     53 H17         -3.0290     2.5500     0.4060 hc         1 G7K       0.055950
     54 H18         -1.2200     1.4630     1.7290 hc         1 G7K       0.050950
     55 H19         -0.4440     3.0220     1.9850 hc         1 G7K       0.050950
     56 H20          5.4610    -0.2750     2.1720 ha         1 G7K       0.147000
     57 H21          7.1100     1.4970     1.7410 ha         1 G7K       0.153000
     58 H22          6.7050     0.8660    -2.4750 ha         1 G7K       0.153000
     59 H23          5.0560    -0.9090    -2.0570 ha         1 G7K       0.147000
@<TRIPOS>BOND
     1     1     2 1   
     2     1    37 1   
     3     1    38 1   
     4     1    39 1   
     5     2     3 1   
     6     3     4 ar  
     7     3    36 ar  
     8     4     5 ar  
     9     4    40 1   
    10     5     6 ar  
    11     5    41 1   
    12     6     7 1   
    13     6    35 ar  
    14     7     8 2   
    15     8     9 1   
    16     8    34 1   
    17     9    10 1   
    18     9    42 1   
    19    10    11 ar  
    20    10    23 ar  
    21    11    12 ar  
    22    11    43 1   
    23    12    13 ar  
    24    12    24 1   
    25    13    14 ar  
    26    14    15 1   
    27    14    23 ar  
    28    15    16 1   
    29    15    44 1   
    30    16    17 1   
    31    16    22 1   
    32    16    45 1   
    33    17    18 1   
    34    17    46 1   
    35    17    47 1   
    36    18    19 1   
    37    18    48 1   
    38    18    49 1   
    39    19    20 1   
    40    19    21 1   
    41    19    50 1   
    42    20    51 1   
    43    21    22 1   
    44    21    52 1   
    45    21    53 1   
    46    22    54 1   
    47    22    55 1   
    48    24    25 1   
    49    24    26 1   
    50    24    27 1   
    51    27    28 ar  
    52    27    33 ar  
    53    28    29 ar  
    54    28    56 1   
    55    29    30 ar  
    56    29    57 1   
    57    30    31 1   
    58    30    32 ar  
    59    32    33 ar  
    60    32    58 1   
    61    33    59 1   
    62    34    35 1   
    63    35    36 ar  
@<TRIPOS>SUBSTRUCTURE
     1 G7K         1 TEMP              0 ****  ****    0 ROOT
