@<TRIPOS>MOLECULE
G7L
   25    25     1     0     0
SMALL
bcc


@<TRIPOS>ATOM
      1 C01        -29.3810    17.7990    -6.8320 c2         1 G7L      -0.130000
      2 C02        -30.1180    18.8860    -6.6360 ce         1 G7L      -0.243200
      3 C03        -29.9410    20.0890    -7.4910 c          1 G7L       0.668300
      4 C04        -32.2790    20.8150    -7.0030 c3         1 G7L       0.091300
      5 C05        -30.6990    22.2280    -8.2560 c3         1 G7L       0.063700
      6 C06        -30.9460    22.0540    -9.7230 cc         1 G7L       0.382700
      7 C07        -30.9020    21.4500   -12.0670 cc         1 G7L      -0.176400
      8 C08        -31.9340    22.2330   -11.6660 cd         1 G7L       0.220600
      9 C09        -33.0300    22.7380   -12.5360 c3         1 G7L       0.658600
     10 F01        -34.2300    22.3490   -12.0900 f          1 G7L      -0.228967
     11 F02        -32.9060    22.2990   -13.7900 f          1 G7L      -0.228967
     12 F03        -33.0510    24.0760   -12.5770 f          1 G7L      -0.228967
     13 N01        -30.9340    21.0060    -7.5120 n          1 G7L      -0.472800
     14 N02        -31.9530    22.5720   -10.3480 nd         1 G7L      -0.607000
     15 O01        -28.9180    20.2600    -8.1480 o          1 G7L      -0.616100
     16 S01        -29.9020    21.1070   -10.7270 ss         1 G7L      -0.038300
     17 H1         -28.6470    17.7360    -7.6250 ha         1 G7L       0.126500
     18 H2         -29.4960    16.9280    -6.2020 ha         1 G7L       0.126500
     19 H3         -30.8410    18.9050    -5.8320 ha         1 G7L       0.135000
     20 H4         -32.4750    19.7730    -6.7750 h1         1 G7L       0.046700
     21 H5         -32.4520    21.4120    -6.1060 h1         1 G7L       0.046700
     22 H6         -33.0010    21.1180    -7.7610 h1         1 G7L       0.046700
     23 H7         -29.6850    22.5850    -8.0780 h1         1 G7L       0.083200
     24 H8         -31.3840    22.9930    -7.8920 h1         1 G7L       0.083200
     25 H9         -30.6890    21.0610   -13.0510 h4         1 G7L       0.193000
@<TRIPOS>BOND
     1     1     2 2   
     2     1    17 1   
     3     1    18 1   
     4     2     3 1   
     5     2    19 1   
     6     3    13 1   
     7     3    15 2   
     8     4    13 1   
     9     4    20 1   
    10     4    21 1   
    11     4    22 1   
    12     5     6 1   
    13     5    13 1   
    14     5    23 1   
    15     5    24 1   
    16     6    14 2   
    17     6    16 1   
    18     7     8 2   
    19     7    16 1   
    20     7    25 1   
    21     8     9 1   
    22     8    14 1   
    23     9    10 1   
    24     9    11 1   
    25     9    12 1   
@<TRIPOS>SUBSTRUCTURE
     1 G7L         1 TEMP              0 ****  ****    0 ROOT
