@<TRIPOS>MOLECULE
G7L
   25    25     1     0     0
SMALL
No Charge or Current Charge


@<TRIPOS>ATOM
      1 C01        -29.6840    17.6060    -6.8120 c2         1 G7L      -0.230000
      2 C02        -30.2880    18.8110    -6.6580 ce         1 G7L      -0.293200
      3 C03        -29.9010    20.0440    -7.4200 c          1 G7L       0.601300
      4 C04        -32.1900    21.0310    -6.9500 c3         1 G7L       0.091300
      5 C05        -30.4840    22.3360    -8.2980 c3         1 G7L       0.063700
      6 C06        -30.7790    22.2050    -9.7730 cc         1 G7L       0.382700
      7 C07        -30.6990    21.9070   -12.1670 cc         1 G7L      -0.238000
      8 C08        -31.9570    22.1830   -11.6700 cd         1 G7L       0.155300
      9 C09        -33.2290    22.3010   -12.5040 c3         1 G7L       0.294700
     10 F01        -34.1700    21.4080   -12.1170 f          1 G7L      -0.107667
     11 F02        -33.0020    22.0820   -13.8200 f          1 G7L      -0.107667
     12 F03        -33.7850    23.5300   -12.4030 f          1 G7L      -0.107667
     13 N01        -30.8270    21.1080    -7.5250 n          1 G7L      -0.405800
     14 N02        -31.9950    22.3580   -10.2880 nd         1 G7L      -0.607000
     15 O01        -28.8230    20.1030    -7.9960 o          1 G7L      -0.616100
     16 S01        -29.5000    21.8560   -10.9060 ss         1 G7L       0.106600
     17 H1         -28.8400    17.4640    -7.4900 ha         1 G7L       0.176500
     18 H2         -30.0150    16.7240    -6.2620 ha         1 G7L       0.176500
     19 H3         -31.1450    18.8900    -5.9940 ha         1 G7L       0.185000
     20 H4         -32.6900    20.1170    -7.2970 h1         1 G7L       0.046700
     21 H5         -32.1320    21.0240    -5.8540 h1         1 G7L       0.046700
     22 H6         -32.7910    21.8940    -7.2650 h1         1 G7L       0.046700
     23 H7         -29.4200    22.5720    -8.1640 h1         1 G7L       0.083200
     24 H8         -31.0490    23.1890    -7.9020 h1         1 G7L       0.083200
     25 H9         -30.3990    21.7320   -13.1910 h4         1 G7L       0.175000
@<TRIPOS>BOND
     1     1     2 2   
     2     1    17 1   
     3     1    18 1   
     4     2     3 1   
     5     2    19 1   
     6     3    13 1   
     7     3    15 2   
     8     4    13 1   
     9     4    20 1   
    10     4    21 1   
    11     4    22 1   
    12     5     6 1   
    13     5    13 1   
    14     5    23 1   
    15     5    24 1   
    16     6    14 2   
    17     6    16 1   
    18     7     8 2   
    19     7    16 1   
    20     7    25 1   
    21     8     9 1   
    22     8    14 1   
    23     9    10 1   
    24     9    11 1   
    25     9    12 1   
@<TRIPOS>SUBSTRUCTURE
     1 G7L         1 TEMP              0 ****  ****    0 ROOT
