@<TRIPOS>MOLECULE
G7N
   41    42     1     0     0
SMALL
No Charge or Current Charge


@<TRIPOS>ATOM
      1 N           -5.3960    -0.2270    -0.2740 nu         1 G7N      -0.923400
      2 CA          -4.4660    -0.9420     0.6470 c3         1 G7N       0.164500
      3 C           -3.1160    -0.1660     0.8780 c          1 G7N       0.591100
      4 O           -3.0740     0.8790     1.5150 o          1 G7N      -0.512100
      5 CB          -5.1940    -1.2390     1.9750 c3         1 G7N      -0.106100
      6 CAB          4.9730    -0.1040    -1.7630 ca         1 G7N       0.248000
      7 CAC          3.5960     0.0210    -1.5090 ca         1 G7N      -0.105000
      8 CAD          3.1160    -0.2200    -0.2070 ca         1 G7N      -0.030000
      9 CAE          1.6860    -0.1240     0.0770 cc         1 G7N      -0.112000
     10 CAG         -0.6930    -0.3610     0.3230 cc         1 G7N       0.571300
     11 CAL         -5.0570     0.0580    -1.5030 c2         1 G7N       0.806100
     12 CAN          5.8150    -0.4830    -0.6780 ca         1 G7N       0.282900
     13 CAP          4.0340    -0.5990     0.7980 ca         1 G7N       0.304900
     14 CAQ          1.1060     0.8980     0.8200 cd         1 G7N       0.230500
     15 CAV          1.0850     3.0940     2.2100 c3         1 G7N      -0.183100
     16 CAW          1.8800     2.0630     1.4030 c          1 G7N       0.505600
     17 NAH         -2.0090    -0.7620     0.3050 ns         1 G7N      -0.484400
     18 NAM         -5.2890     1.2150    -1.8650 n2         1 G7N      -0.887100
     19 NAO          5.3650    -0.7320     0.5780 nb         1 G7N      -0.636000
     20 NAR         -0.2780     0.7250     0.9540 nd         1 G7N      -0.642000
     21 NAU         -5.4880    -0.9790    -2.1400 nv         1 G7N      -1.073200
     22 OAX          3.0880     2.2310     1.2650 o          1 G7N      -0.519100
     23 SAF          0.5320    -1.2800    -0.5050 ss         1 G7N      -0.064400
     24 H1          -5.7770     0.6310     0.1120 hn         1 G7N       0.524000
     25 H2          -4.2040    -1.9130     0.2050 h1         1 G7N       0.068700
     26 H3          -6.0940    -1.8390     1.7960 hc         1 G7N       0.048700
     27 H4          -4.5400    -1.8010     2.6530 hc         1 G7N       0.048700
     28 H5          -5.4920    -0.3110     2.4780 hc         1 G7N       0.048700
     29 H6           2.9100     0.3010    -2.3030 ha         1 G7N       0.126000
     30 H7           6.8890    -0.5950    -0.8280 h4         1 G7N       0.018100
     31 H8           3.6910    -0.8070     1.8110 h4         1 G7N       0.023100
     32 H9           0.5440     2.5780     3.0110 hc         1 G7N       0.069367
     33 H10          1.7110     3.9050     2.6010 hc         1 G7N       0.069367
     34 H11          0.2680     3.4780     1.5890 hc         1 G7N       0.069367
     35 H12          4.8410     0.4970    -3.7710 hn         1 G7N       0.457000
     36 H13          6.4610     0.1400    -3.2270 hn         1 G7N       0.457000
     37 H14         -2.2020    -1.6120    -0.2060 hn         1 G7N       0.331500
     38 H15         -5.3360     1.2080    -2.8890 hn         1 G7N       0.381400
     39 H16         -5.8440    -1.5960    -1.4260 hn         1 G7N       0.452000
     40 H17         -6.1950    -0.7320    -2.8150 hn         1 G7N       0.452000
     41 NAA          5.4570     0.1380    -3.0420 nv         1 G7N      -1.073000
@<TRIPOS>BOND
     1     1     2 1   
     2     1    11 1   
     3     1    24 1   
     4     2     3 1   
     5     2     5 1   
     6     2    25 1   
     7     3     4 2   
     8     3    17 1   
     9     5    26 1   
    10     5    27 1   
    11     5    28 1   
    12     6     7 ar  
    13     6    12 ar  
    14     6    41 1   
    15     7     8 ar  
    16     7    29 1   
    17     8     9 1   
    18     8    13 ar  
    19     9    14 2   
    20     9    23 1   
    21    10    17 1   
    22    10    20 2   
    23    10    23 1   
    24    11    18 2   
    25    11    21 1   
    26    12    19 ar  
    27    12    30 1   
    28    13    19 ar  
    29    13    31 1   
    30    14    16 1   
    31    14    20 1   
    32    15    16 1   
    33    15    32 1   
    34    15    33 1   
    35    15    34 1   
    36    16    22 2   
    37    17    37 1   
    38    18    38 1   
    39    21    39 1   
    40    21    40 1   
    41    35    41 1   
    42    36    41 1   
@<TRIPOS>SUBSTRUCTURE
     1 G7N         1 TEMP              0 ****  ****    0 ROOT
