@<TRIPOS>MOLECULE
G7N
   41    42     1     0     0
SMALL
bcc


@<TRIPOS>ATOM
      1 N           -5.3900     0.2820    -0.0650 nu         1 G7N      -0.868200
      2 CA          -4.2960    -0.6120     0.2000 c3         1 G7N       0.164500
      3 C           -2.9910     0.1830     0.2210 c          1 G7N       0.659100
      4 O           -2.9490     1.3830     0.3430 o          1 G7N      -0.512100
      5 CB          -4.4610    -1.3560     1.5310 c3         1 G7N      -0.106100
      6 CAB          5.4100    -0.0820    -1.1320 ca         1 G7N       0.044300
      7 CAC          4.0810     0.2910    -0.9420 ca         1 G7N      -0.123000
      8 CAD          3.2760    -0.4550    -0.0930 ca         1 G7N      -0.095300
      9 CAE          1.8610    -0.1280     0.1010 cc         1 G7N      -0.032400
     10 CAG         -0.5710    -0.2090     0.1860 cc         1 G7N       0.571300
     11 CAL         -6.3960     0.0590    -0.9640 c2         1 G7N       0.806100
     12 CAN          5.8560    -1.2180    -0.4380 ca         1 G7N       0.348200
     13 CAP          3.8240    -1.5720     0.5360 ca         1 G7N       0.370200
     14 CAQ          1.2220     1.0100     0.5130 cd         1 G7N       0.295800
     15 CAV          0.9850     3.4290     1.2430 c3         1 G7N      -0.183100
     16 CAW          1.8830     2.2560     0.9730 c          1 G7N       0.505600
     17 NAH         -1.8820    -0.6180     0.1230 ns         1 G7N      -0.551400
     18 NAM         -7.0660     1.0600    -1.4070 n2         1 G7N      -0.887100
     19 NAO          5.0870    -1.9330     0.3630 nb         1 G7N      -0.636000
     20 NAR         -0.1450     0.9470     0.5520 nd         1 G7N      -0.642000
     21 NAU         -6.5680    -1.2560    -1.3340 nv         1 G7N      -0.962800
     22 OAX          3.0840     2.3070     1.1220 o          1 G7N      -0.519100
     23 SAF          0.6790    -1.3300    -0.2630 ss         1 G7N      -0.209300
     24 H1          -5.2430     1.2540     0.1620 hn         1 G7N       0.468800
     25 H2          -4.2210    -1.3470    -0.6070 h1         1 G7N       0.068700
     26 H3          -5.3990    -1.9100     1.5290 hc         1 G7N       0.048700
     27 H4          -3.6580    -2.0730     1.7040 hc         1 G7N       0.048700
     28 H5          -4.4850    -0.6560     2.3660 hc         1 G7N       0.048700
     29 H6           3.6790     1.1500    -1.4650 ha         1 G7N       0.144000
     30 H7           6.8840    -1.5470    -0.5550 h4         1 G7N       0.018100
     31 H8           3.2250    -2.1760     1.2090 h4         1 G7N       0.023100
     32 H9           0.2300     3.1800     1.9890 hc         1 G7N       0.069367
     33 H10          1.5690     4.2790     1.5870 hc         1 G7N       0.069367
     34 H11          0.4440     3.7060     0.3370 hc         1 G7N       0.069367
     35 H12          5.9960     1.5470    -2.1910 hn         1 G7N       0.401800
     36 H13          7.2230     0.4580    -1.8660 hn         1 G7N       0.401800
     37 H14         -2.0410    -1.5990    -0.0510 hn         1 G7N       0.331500
     38 H15         -7.8430     0.7480    -1.9770 hn         1 G7N       0.381400
     39 H16         -6.4150    -1.9590    -0.6260 hn         1 G7N       0.396800
     40 H17         -7.4080    -1.4420    -1.8590 hn         1 G7N       0.396800
     41 NAA          6.2340     0.5870    -2.0010 nv         1 G7N      -0.824200
@<TRIPOS>BOND
     1     1     2 1   
     2     1    11 1   
     3     1    24 1   
     4     2     3 1   
     5     2     5 1   
     6     2    25 1   
     7     3     4 2   
     8     3    17 1   
     9     5    26 1   
    10     5    27 1   
    11     5    28 1   
    12     6     7 ar  
    13     6    12 ar  
    14     6    41 1   
    15     7     8 ar  
    16     7    29 1   
    17     8     9 1   
    18     8    13 ar  
    19     9    14 2   
    20     9    23 1   
    21    10    17 1   
    22    10    20 2   
    23    10    23 1   
    24    11    18 2   
    25    11    21 1   
    26    12    19 ar  
    27    12    30 1   
    28    13    19 ar  
    29    13    31 1   
    30    14    16 1   
    31    14    20 1   
    32    15    16 1   
    33    15    32 1   
    34    15    33 1   
    35    15    34 1   
    36    16    22 2   
    37    17    37 1   
    38    18    38 1   
    39    21    39 1   
    40    21    40 1   
    41    35    41 1   
    42    36    41 1   
@<TRIPOS>SUBSTRUCTURE
     1 G7N         1 TEMP              0 ****  ****    0 ROOT
