@<TRIPOS>MOLECULE
G7O
   32    34     1     0     0
SMALL
bcc


@<TRIPOS>ATOM
      1 C01        -21.8960     3.1720    23.6990 c2         1 G7O      -0.135000
      2 C02        -22.5780     4.1390    24.3050 ce         1 G7O      -0.240200
      3 C03        -22.3210     4.4730    25.7300 c          1 G7O       0.669300
      4 C06        -22.8060     5.8080    27.6580 c3         1 G7O       0.084700
      5 C07        -23.5330     4.7690    28.4530 cc         1 G7O       0.393200
      6 C09        -24.1180     3.5040    30.1490 ca         1 G7O       0.097400
      7 C10        -24.0650     2.9340    31.4200 ca         1 G7O      -0.072000
      8 C11        -25.0250     2.0050    31.7750 ca         1 G7O      -0.132000
      9 C12        -26.0340     1.6350    30.8780 ca         1 G7O      -0.120000
     10 C13        -26.1020     2.1900    29.6120 ca         1 G7O      -0.092000
     11 C14        -25.1370     3.1270    29.2590 ca         1 G7O      -0.053100
     12 C16        -23.6590     6.5280    25.4360 cx         1 G7O       0.042700
     13 C17        -22.9890     7.2260    24.2940 cx         1 G7O      -0.132900
     14 C18        -23.3160     7.9820    25.5390 cx         1 G7O      -0.132900
     15 N05        -22.9150     5.5920    26.2310 n          1 G7O      -0.468800
     16 N08        -23.2310     4.4330    29.6520 nd         1 G7O      -0.528100
     17 O04        -21.6320     3.7610    26.4450 o          1 G7O      -0.582100
     18 S15        -24.9430     3.9910    27.7720 ss         1 G7O      -0.111100
     19 H1         -21.1180     2.6110    24.2000 ha         1 G7O       0.125500
     20 H2         -22.0970     2.9140    22.6680 ha         1 G7O       0.125500
     21 H3         -23.3450     4.6750    23.7650 ha         1 G7O       0.134000
     22 H4         -23.2390     6.7820    27.8860 h1         1 G7O       0.080200
     23 H5         -21.7660     5.8320    27.9880 h1         1 G7O       0.080200
     24 H7         -23.2820     3.2220    32.1080 ha         1 G7O       0.149000
     25 H8         -24.9960     1.5540    32.7580 ha         1 G7O       0.135000
     26 H9         -26.7730     0.9050    31.1780 ha         1 G7O       0.132000
     27 H11        -26.8830     1.9010    28.9220 ha         1 G7O       0.140000
     28 H12        -24.7120     6.2920    25.3150 h1         1 G7O       0.085700
     29 H13        -21.9480     6.9950    24.1100 hc         1 G7O       0.080700
     30 H14        -23.5780     7.3970    23.4020 hc         1 G7O       0.080700
     31 H15        -24.1370     8.6860    25.5270 hc         1 G7O       0.080700
     32 H16        -22.4910     8.2660    26.1800 hc         1 G7O       0.080700
@<TRIPOS>BOND
     1     1     2 2   
     2     1    19 1   
     3     1    20 1   
     4     2     3 1   
     5     2    21 1   
     6     3    15 1   
     7     3    17 2   
     8     4     5 1   
     9     4    15 1   
    10     4    22 1   
    11     4    23 1   
    12     5    16 2   
    13     5    18 1   
    14     6     7 ar  
    15     6    11 ar  
    16     6    16 1   
    17     7     8 ar  
    18     7    24 1   
    19     8     9 ar  
    20     8    25 1   
    21     9    10 ar  
    22     9    26 1   
    23    10    11 ar  
    24    10    27 1   
    25    11    18 1   
    26    12    13 1   
    27    12    14 1   
    28    12    15 1   
    29    12    28 1   
    30    13    14 1   
    31    13    29 1   
    32    13    30 1   
    33    14    31 1   
    34    14    32 1   
@<TRIPOS>SUBSTRUCTURE
     1 G7O         1 TEMP              0 ****  ****    0 ROOT
