@<TRIPOS>MOLECULE
G7O
   32    34     1     0     0
SMALL
No Charge or Current Charge


@<TRIPOS>ATOM
      1 C01        -21.6110     3.2310    23.5120 c2         1 G7O      -0.235000
      2 C02        -22.4340     4.0480    24.2160 ce         1 G7O      -0.290200
      3 C03        -22.2690     4.3530    25.6740 c          1 G7O       0.602300
      4 C06        -22.8240     5.7770    27.6690 c3         1 G7O       0.084700
      5 C07        -23.6020     4.7780    28.4970 cc         1 G7O       0.393200
      6 C09        -24.1080     3.4510    30.1790 ca         1 G7O       0.097400
      7 C10        -23.9790     2.7680    31.4000 ca         1 G7O      -0.054000
      8 C11        -25.0110     1.9050    31.8240 ca         1 G7O      -0.114000
      9 C12        -26.1630     1.7330    31.0270 ca         1 G7O      -0.102000
     10 C13        -26.2840     2.4220    29.8050 ca         1 G7O      -0.074000
     11 C14        -25.2410     3.2730    29.4090 ca         1 G7O      -0.180000
     12 C16        -23.6440     6.4790    25.4020 cx         1 G7O       0.042700
     13 C17        -23.0260     7.2710    24.2720 cx         1 G7O      -0.132900
     14 C18        -23.4760     7.9780    25.5240 cx         1 G7O      -0.132900
     15 N05        -22.8810     5.5150    26.2000 n          1 G7O      -0.401800
     16 N08        -23.1490     4.3210    29.6760 nd         1 G7O      -0.528100
     17 O04        -21.5750     3.6380    26.3840 o          1 G7O      -0.582100
     18 S15        -25.1970     4.2200    27.9330 ss         1 G7O       0.015800
     19 H1         -20.7750     2.7080    23.9820 ha         1 G7O       0.175500
     20 H2         -21.7480     3.0610    22.4430 ha         1 G7O       0.175500
     21 H3         -23.2330     4.5720    23.6960 ha         1 G7O       0.184000
     22 H4         -23.2200     6.7750    27.8950 h1         1 G7O       0.080200
     23 H5         -21.7750     5.7660    27.9900 h1         1 G7O       0.080200
     24 H7         -23.0910     2.9040    32.0110 ha         1 G7O       0.131000
     25 H8         -24.9190     1.3730    32.7670 ha         1 G7O       0.117000
     26 H9         -26.9580     1.0670    31.3560 ha         1 G7O       0.114000
     27 H11        -27.1680     2.2960    29.1830 ha         1 G7O       0.122000
     28 H12        -24.6540     6.0890    25.2630 h1         1 G7O       0.085700
     29 H13        -21.9570     7.1680    24.1050 hc         1 G7O       0.080700
     30 H14        -23.6180     7.4080    23.3700 hc         1 G7O       0.080700
     31 H15        -24.3720     8.5910    25.4680 hc         1 G7O       0.080700
     32 H16        -22.7010     8.3620    26.1830 hc         1 G7O       0.080700
@<TRIPOS>BOND
     1     1     2 2   
     2     1    19 1   
     3     1    20 1   
     4     2     3 1   
     5     2    21 1   
     6     3    15 1   
     7     3    17 2   
     8     4     5 1   
     9     4    15 1   
    10     4    22 1   
    11     4    23 1   
    12     5    16 2   
    13     5    18 1   
    14     6     7 ar  
    15     6    11 ar  
    16     6    16 1   
    17     7     8 ar  
    18     7    24 1   
    19     8     9 ar  
    20     8    25 1   
    21     9    10 ar  
    22     9    26 1   
    23    10    11 ar  
    24    10    27 1   
    25    11    18 1   
    26    12    13 1   
    27    12    14 1   
    28    12    15 1   
    29    12    28 1   
    30    13    14 1   
    31    13    29 1   
    32    13    30 1   
    33    14    31 1   
    34    14    32 1   
@<TRIPOS>SUBSTRUCTURE
     1 G7O         1 TEMP              0 ****  ****    0 ROOT
