@<TRIPOS>MOLECULE
G7P
   29    29     1     0     0
SMALL
No Charge or Current Charge


@<TRIPOS>ATOM
      1 C1          -2.2590     1.4130     0.4080 c6         1 G7P       0.365300
      2 C2          -3.3230     0.4640    -0.2410 c6         1 G7P       0.106300
      3 C3          -2.9810    -0.9970     0.1620 c6         1 G7P       0.125300
      4 C4          -1.5200    -1.3350    -0.2600 c6         1 G7P       0.137300
      5 C5          -0.5410    -0.2790     0.3590 c6         1 G7P       0.176300
      6 C6           0.9360    -0.4750    -0.1030 c3         1 G7P      -0.026400
      7 O1          -2.4440     2.7480    -0.0180 oh         1 G7P      -0.730000
      8 O2          -4.6750     0.8010     0.1540 oh         1 G7P      -0.746000
      9 O3          -3.9200    -1.9120    -0.4320 oh         1 G7P      -0.733000
     10 O4          -1.2120    -2.6810     0.1450 oh         1 G7P      -0.689000
     11 O5          -0.9490     1.0570    -0.0340 os         1 G7P      -0.447000
     12 C7           1.9660     0.4900     0.5430 c3         1 G7P      -0.382400
     13 P            3.7080     0.1800     0.0190 p5         1 G7P       1.301500
     14 O3P          3.7970     0.3150    -1.4620 o          1 G7P      -0.938167
     15 O2P          4.5810     1.1900     0.6830 o          1 G7P      -0.938167
     16 O1P          4.0970    -1.1950     0.4420 o          1 G7P      -0.938167
     17 H1          -2.3080     1.3580     1.5060 h2         1 G7P       0.014700
     18 H2          -3.2210     0.5520    -1.3330 h1         1 G7P       0.063700
     19 HA          -1.5270     3.0400    -0.2220 ho         1 G7P       0.519000
     20 H3          -3.0450    -1.0670     1.2590 h1         1 G7P       0.040700
     21 HB          -4.7180     1.7880     0.1200 ho         1 G7P       0.508000
     22 H5          -0.5770    -0.3480     1.4570 h1         1 G7P       0.028700
     23 H4          -1.4530    -1.2560    -1.3560 h1         1 G7P       0.054700
     24 HC          -4.7790    -1.4250    -0.4050 ho         1 G7P       0.499000
     25 HD          -2.0530    -3.1770    -0.0010 ho         1 G7P       0.490000
     26 H61C         1.2460    -1.5030     0.1230 hc         1 G7P       0.063200
     27 H62C         0.9890    -0.3780    -1.1940 hc         1 G7P       0.063200
     28 H71C         1.7180     1.5260     0.2880 hc         1 G7P       0.005200
     29 H72C         1.9180     0.4020     1.6340 hc         1 G7P       0.005200
@<TRIPOS>BOND
     1     1     2 1   
     2     1     7 1   
     3     1    11 1   
     4     1    17 1   
     5     2     3 1   
     6     2     8 1   
     7     2    18 1   
     8     3     4 1   
     9     3     9 1   
    10     3    20 1   
    11     4     5 1   
    12     4    10 1   
    13     4    23 1   
    14     5     6 1   
    15     5    11 1   
    16     5    22 1   
    17     6    12 1   
    18     6    26 1   
    19     6    27 1   
    20     7    19 1   
    21     8    21 1   
    22     9    24 1   
    23    10    25 1   
    24    12    13 1   
    25    12    28 1   
    26    12    29 1   
    27    13    14 1   
    28    13    15 1   
    29    13    16 1   
@<TRIPOS>SUBSTRUCTURE
     1 G7P         1 TEMP              0 ****  ****    0 ROOT
