@<TRIPOS>MOLECULE
G7P
   29    29     1     0     0
SMALL
bcc


@<TRIPOS>ATOM
      1 C1          -2.1740     1.4480     0.2860 c6         1 G7P       0.318900
      2 C2          -3.2490     0.5210    -0.2730 c6         1 G7P       0.083100
      3 C3          -2.9330    -0.9070     0.1440 c6         1 G7P       0.102100
      4 C4          -1.5100    -1.2830    -0.2530 c6         1 G7P       0.114100
      5 C5          -0.5270    -0.2430     0.2920 c6         1 G7P       0.153100
      6 C6           0.9100    -0.4910    -0.1290 c3         1 G7P      -0.026400
      7 O1          -2.4170     2.7290    -0.1710 oh         1 G7P      -0.607800
      8 O2          -4.5260     0.8410     0.2240 oh         1 G7P      -0.623800
      9 O3          -3.8040    -1.8410    -0.4510 oh         1 G7P      -0.610800
     10 O4          -1.1560    -2.5400     0.2700 oh         1 G7P      -0.566800
     11 O5          -0.9130     1.0380    -0.1740 os         1 G7P      -0.400600
     12 C7           1.9240     0.4420     0.5160 c3         1 G7P      -0.224600
     13 P            3.6770     0.0730     0.0090 p5         1 G7P       1.143700
     14 O3P          3.7160     0.3150    -1.5080 o          1 G7P      -0.938167
     15 O2P          4.5370     1.0620     0.8120 o          1 G7P      -0.938167
     16 O1P          3.9080    -1.3950     0.3980 o          1 G7P      -0.938167
     17 H1          -2.1950     1.4020     1.3900 h2         1 G7P       0.014700
     18 H2          -3.2190     0.5880    -1.3720 h1         1 G7P       0.063700
     19 HA          -1.9740     3.3640     0.4020 ho         1 G7P       0.420000
     20 H3          -2.9970    -0.9630     1.2440 h1         1 G7P       0.040700
     21 HB          -4.7950     1.6870    -0.1480 ho         1 G7P       0.409000
     22 H5          -0.5850    -0.2680     1.3940 h1         1 G7P       0.028700
     23 H4          -1.4390    -1.2780    -1.3530 h1         1 G7P       0.054700
     24 HC          -4.6790    -1.7340    -0.0670 ho         1 G7P       0.400000
     25 HD          -1.8110    -3.1810    -0.0260 ho         1 G7P       0.391000
     26 H61C         1.1730    -1.5190     0.1270 hc         1 G7P       0.063200
     27 H62C         0.9830    -0.4190    -1.2200 hc         1 G7P       0.063200
     28 H71C         1.6900     1.4830     0.2690 hc         1 G7P       0.005200
     29 H72C         1.8370     0.3650     1.6070 hc         1 G7P       0.005200
@<TRIPOS>BOND
     1     1     2 1   
     2     1     7 1   
     3     1    11 1   
     4     1    17 1   
     5     2     3 1   
     6     2     8 1   
     7     2    18 1   
     8     3     4 1   
     9     3     9 1   
    10     3    20 1   
    11     4     5 1   
    12     4    10 1   
    13     4    23 1   
    14     5     6 1   
    15     5    11 1   
    16     5    22 1   
    17     6    12 1   
    18     6    26 1   
    19     6    27 1   
    20     7    19 1   
    21     8    21 1   
    22     9    24 1   
    23    10    25 1   
    24    12    13 1   
    25    12    28 1   
    26    12    29 1   
    27    13    14 1   
    28    13    15 1   
    29    13    16 1   
@<TRIPOS>SUBSTRUCTURE
     1 G7P         1 TEMP              0 ****  ****    0 ROOT
