@<TRIPOS>MOLECULE
G7Q
   53    55     1     0     0
SMALL
bcc


@<TRIPOS>ATOM
      1 N           -0.7640     2.4440    -0.0470 n3         1 G7Q      -0.713600
      2 CA           0.6330     2.5520     0.3130 c6         1 G7Q       0.121500
      3 C            1.4430     1.4820    -0.3960 c          1 G7Q       0.663100
      4 O            1.2970     1.1780    -1.5630 o          1 G7Q      -0.548100
      5 CB           1.1960     3.9080    -0.1360 c6         1 G7Q       0.157800
      6 CAA          6.2620    -1.9760     2.1280 c3         1 G7Q      -0.184100
      7 CAF          4.6010    -1.6450    -1.3080 cc         1 G7Q      -0.190400
      8 CAG         -0.9550     4.8900     0.0310 c6         1 G7Q       0.150800
      9 CAH         -2.5200     0.7920    -0.5820 c3         1 G7Q      -0.072400
     10 CAI         -4.1710    -0.9340    -1.3390 c6         1 G7Q      -0.072400
     11 CAJ         -3.8210    -0.5850     1.1170 c6         1 G7Q      -0.072400
     12 CAK         -1.5280     3.5640     0.4830 c6         1 G7Q       0.169800
     13 CAL         -1.3660     1.1730     0.3370 c3         1 G7Q       0.171800
     14 CAM         -4.8390    -2.2790    -1.0670 c6         1 G7Q      -0.124400
     15 CAN         -4.4880    -1.9290     1.4030 c6         1 G7Q      -0.124400
     16 CAV          4.9470    -1.4710    -0.0030 cd         1 G7Q       0.284800
     17 CAW          3.2960    -0.0390    -0.0850 cc         1 G7Q       0.527300
     18 CAX         -3.1550    -0.5590    -0.2600 c6         1 G7Q      -0.063700
     19 CBA         -5.4590    -2.3010     0.3090 c6         1 G7Q       0.421600
     20 FAD         -6.0000    -3.5380     0.5630 f          1 G7Q      -0.246800
     21 FAE         -6.5300    -1.4370     0.3390 f          1 G7Q      -0.246800
     22 NAP          4.1970    -0.5540     0.6810 nd         1 G7Q      -0.690000
     23 NAQ          0.4250     4.9700     0.4670 n7         1 G7Q      -0.808200
     24 NAR          2.4040     0.8990     0.3710 ns         1 G7Q      -0.543400
     25 OAB          6.7090    -3.0050     0.0280 o          1 G7Q      -0.526100
     26 SAS          3.2840    -0.6320    -1.7160 ss         1 G7Q      -0.060300
     27 H2           0.7880     2.4630     1.4030 h1         1 G7Q       0.044700
     28 H3           2.2370     3.9880     0.1830 h1         1 G7Q       0.050700
     29 H4           1.1800     3.9390    -1.2360 h1         1 G7Q       0.050700
     30 H5           5.9390    -0.9900     2.4510 hc         1 G7Q       0.065367
     31 H6           5.6760    -2.7090     2.6870 hc         1 G7Q       0.065367
     32 H7           7.3100    -2.1260     2.3820 hc         1 G7Q       0.065367
     33 H8           5.0440    -2.3090    -2.0340 h4         1 G7Q       0.195000
     34 H9          -1.0640     4.9780    -1.0610 h1         1 G7Q       0.044200
     35 H10         -1.5280     5.7020     0.4840 h1         1 G7Q       0.044200
     36 H11         -3.3000     1.5600    -0.5620 hc         1 G7Q       0.054200
     37 H12         -2.1360     0.7690    -1.6050 hc         1 G7Q       0.054200
     38 H13         -3.6820    -0.9710    -2.3150 hc         1 G7Q       0.050950
     39 H14         -4.9320    -0.1480    -1.4080 hc         1 G7Q       0.050950
     40 H15         -4.5590     0.2220     1.1790 hc         1 G7Q       0.050950
     41 H16         -3.0900    -0.3940     1.9040 hc         1 G7Q       0.050950
     42 H17         -2.5610     3.4800     0.1420 h1         1 G7Q       0.043700
     43 H18         -1.5500     3.5420     1.5860 h1         1 G7Q       0.043700
     44 H19         -0.6190     0.3770     0.2800 h1         1 G7Q       0.031700
     45 H20         -1.6880     1.2000     1.3890 h1         1 G7Q       0.031700
     46 H21         -5.5990    -2.4980    -1.8210 hc         1 G7Q       0.066700
     47 H22         -4.0930    -3.0760    -1.1150 hc         1 G7Q       0.066700
     48 H23         -3.7260    -2.7110     1.4570 hc         1 G7Q       0.066700
     49 H24         -5.0020    -1.9130     2.3680 hc         1 G7Q       0.066700
     50 H25         -2.3610    -1.3200    -0.2670 hc         1 G7Q       0.048700
     51 H26          0.8230     5.8630     0.2080 hn         1 G7Q       0.365800
     52 H28          2.4940     1.1520     1.3460 hn         1 G7Q       0.343500
     53 CAT          6.0430    -2.2120     0.6610 c          1 G7Q       0.506600
@<TRIPOS>BOND
     1     1     2 1   
     2     1    12 1   
     3     1    13 1   
     4     2     3 1   
     5     2     5 1   
     6     2    27 1   
     7     3     4 2   
     8     3    24 1   
     9     5    23 1   
    10     5    28 1   
    11     5    29 1   
    12     6    30 1   
    13     6    31 1   
    14     6    32 1   
    15     6    53 1   
    16     7    16 2   
    17     7    26 1   
    18     7    33 1   
    19     8    12 1   
    20     8    23 1   
    21     8    34 1   
    22     8    35 1   
    23     9    13 1   
    24     9    18 1   
    25     9    36 1   
    26     9    37 1   
    27    10    14 1   
    28    10    18 1   
    29    10    38 1   
    30    10    39 1   
    31    11    15 1   
    32    11    18 1   
    33    11    40 1   
    34    11    41 1   
    35    12    42 1   
    36    12    43 1   
    37    13    44 1   
    38    13    45 1   
    39    14    19 1   
    40    14    46 1   
    41    14    47 1   
    42    15    19 1   
    43    15    48 1   
    44    15    49 1   
    45    16    22 1   
    46    16    53 1   
    47    17    22 2   
    48    17    24 1   
    49    17    26 1   
    50    18    50 1   
    51    19    20 1   
    52    19    21 1   
    53    23    51 1   
    54    24    52 1   
    55    25    53 2   
@<TRIPOS>SUBSTRUCTURE
     1 G7Q         1 TEMP              0 ****  ****    0 ROOT
