@<TRIPOS>MOLECULE
G7Q
   53    55     1     0     0
SMALL
No Charge or Current Charge


@<TRIPOS>ATOM
      1 N           -0.7150     2.0330     0.6110 n3         1 G7Q      -0.713600
      2 CA           0.4120     1.9040     1.6340 c6         1 G7Q       0.121500
      3 C            1.2170     0.5470     1.6200 c          1 G7Q       0.596100
      4 O            0.7300    -0.4820     2.0690 o          1 G7Q      -0.548100
      5 CB           1.3750     3.1440     1.5310 c6         1 G7Q       0.157800
      6 CAA          7.3350    -0.0980    -0.8580 c3         1 G7Q      -0.184100
      7 CAF          4.7810    -2.4330     0.8790 cc         1 G7Q      -0.252000
      8 CAG         -0.4560     4.5710     0.7460 c6         1 G7Q       0.150800
      9 CAH         -2.7360     0.9150    -0.5070 c3         1 G7Q      -0.072400
     10 CAI         -4.4760    -0.3090    -1.9370 c6         1 G7Q      -0.072400
     11 CAJ         -4.2830    -0.8770     0.5490 c6         1 G7Q      -0.072400
     12 CAK         -1.4230     3.3470     0.7900 c6         1 G7Q       0.169800
     13 CAL         -1.6460     0.8700     0.5930 c3         1 G7Q       0.171800
     14 CAM         -5.2370    -1.6360    -2.1930 c6         1 G7Q      -0.124400
     15 CAN         -5.0470    -2.2060     0.3120 c6         1 G7Q      -0.124400
     16 CAV          5.3580    -1.3050     0.3260 cd         1 G7Q       0.219500
     17 CAW          3.3850    -0.4590     0.9570 cc         1 G7Q       0.527300
     18 CAX         -3.5080    -0.4230    -0.7240 c6         1 G7Q      -0.063700
     19 CBA         -5.9760    -2.1150    -0.9210 c6         1 G7Q       0.179000
     20 FAD         -6.5470    -3.3760    -1.1650 f          1 G7Q      -0.125500
     21 FAE         -7.0460    -1.2450    -0.6420 f          1 G7Q      -0.125500
     22 NAP          4.5360    -0.1720     0.3810 nd         1 G7Q      -0.690000
     23 NAQ          0.6660     4.4400     1.7130 n7         1 G7Q      -0.863400
     24 NAR          2.4860     0.5660     1.0780 ns         1 G7Q      -0.476400
     25 OAB          7.4100    -2.4130    -0.2710 o          1 G7Q      -0.526100
     26 SAS          3.1840    -2.1150     1.4900 ss         1 G7Q       0.084600
     27 H2          -0.0300     1.9350     2.6410 h1         1 G7Q       0.044700
     28 H3           2.1630     3.0600     2.2950 h1         1 G7Q       0.050700
     29 H4           1.8640     3.1450     0.5450 h1         1 G7Q       0.050700
     30 H5           6.6460     0.2870    -1.6180 hc         1 G7Q       0.065367
     31 H6           7.3070     0.6930    -0.1000 hc         1 G7Q       0.065367
     32 H7           8.3450    -0.2390    -1.2600 hc         1 G7Q       0.065367
     33 H8           5.1960    -3.4280     0.9650 h4         1 G7Q       0.177000
     34 H9          -0.0480     4.6600    -0.2720 h1         1 G7Q       0.044200
     35 H10         -1.0200     5.4920     0.9550 h1         1 G7Q       0.044200
     36 H11         -3.4550     1.7070    -0.2690 hc         1 G7Q       0.054200
     37 H12         -2.2520     1.2070    -1.4470 hc         1 G7Q       0.054200
     38 H13         -3.9140    -0.0330    -2.8410 hc         1 G7Q       0.050950
     39 H14         -5.1970     0.5020    -1.7630 hc         1 G7Q       0.050950
     40 H15         -4.9910    -0.0930     0.8530 hc         1 G7Q       0.050950
     41 H16         -3.5920    -1.0120     1.3910 hc         1 G7Q       0.050950
     42 H17         -2.1750     3.4980     0.0030 h1         1 G7Q       0.043700
     43 H18         -1.9590     3.3580     1.7510 h1         1 G7Q       0.043700
     44 H19         -1.0740    -0.0480     0.4140 h1         1 G7Q       0.031700
     45 H20         -2.1300     0.7680     1.5730 h1         1 G7Q       0.031700
     46 H21         -5.9510    -1.5070    -3.0170 hc         1 G7Q       0.066700
     47 H22         -4.5260    -2.4090    -2.5150 hc         1 G7Q       0.066700
     48 H23         -4.3240    -3.0200     0.1640 hc         1 G7Q       0.066700
     49 H24         -5.6320    -2.4680     1.2040 hc         1 G7Q       0.066700
     50 H25         -2.7490    -1.1840    -0.9610 hc         1 G7Q       0.048700
     51 H26          1.3280     5.2140     1.5680 hn         1 G7Q       0.421000
     52 H28          2.7890     1.4470     0.6970 hn         1 G7Q       0.343500
     53 CAT          6.7470    -1.3780    -0.2590 c          1 G7Q       0.506600
@<TRIPOS>BOND
     1     1     2 1   
     2     1    12 1   
     3     1    13 1   
     4     2     3 1   
     5     2     5 1   
     6     2    27 1   
     7     3     4 2   
     8     3    24 1   
     9     5    23 1   
    10     5    28 1   
    11     5    29 1   
    12     6    30 1   
    13     6    31 1   
    14     6    32 1   
    15     6    53 1   
    16     7    16 2   
    17     7    26 1   
    18     7    33 1   
    19     8    12 1   
    20     8    23 1   
    21     8    34 1   
    22     8    35 1   
    23     9    13 1   
    24     9    18 1   
    25     9    36 1   
    26     9    37 1   
    27    10    14 1   
    28    10    18 1   
    29    10    38 1   
    30    10    39 1   
    31    11    15 1   
    32    11    18 1   
    33    11    40 1   
    34    11    41 1   
    35    12    42 1   
    36    12    43 1   
    37    13    44 1   
    38    13    45 1   
    39    14    19 1   
    40    14    46 1   
    41    14    47 1   
    42    15    19 1   
    43    15    48 1   
    44    15    49 1   
    45    16    22 1   
    46    16    53 1   
    47    17    22 2   
    48    17    24 1   
    49    17    26 1   
    50    18    50 1   
    51    19    20 1   
    52    19    21 1   
    53    23    51 1   
    54    24    52 1   
    55    25    53 2   
@<TRIPOS>SUBSTRUCTURE
     1 G7Q         1 TEMP              0 ****  ****    0 ROOT
