@<TRIPOS>MOLECULE
G7T
   62    65     1     0     0
SMALL
abcg2


@<TRIPOS>ATOM
      1 C10          3.3980    -0.5480    -0.8350 ca         1 G7T      -0.012300
      2 C13          1.5240     0.7700    -0.0240 ca         1 G7T      -0.011000
      3 C15         -0.9000     0.5510    -0.5630 c          1 G7T       0.606100
      4 C17         -3.3750     0.2900    -0.2630 c3         1 G7T      -0.167400
      5 C20         -7.1490     0.7120     0.2820 ca         1 G7T       0.017000
      6 C21         -8.3100    -0.0370     0.3610 ca         1 G7T      -0.263300
      7 C22         -9.6380     0.6020     0.6330 c3         1 G7T       0.371300
      8 C26         -8.2210    -1.4130     0.1760 ca         1 G7T       0.252000
      9 C28         -7.0220    -2.0410    -0.0770 ca         1 G7T      -0.174000
     10 C02          7.0800     2.0790    -0.2570 ca         1 G7T       0.457900
     11 N03          8.3510     2.4870    -0.2550 nb         1 G7T      -0.314000
     12 C04          9.3130     1.5940    -0.0220 ca         1 G7T       0.195900
     13 N05          9.1980     0.3030     0.2090 nb         1 G7T      -0.234000
     14 C06          7.9210    -0.0950     0.2150 ca         1 G7T       0.157500
     15 C07          6.8040     0.7190     0.0150 ca         1 G7T      -0.384900
     16 C08          5.6940    -0.1640     0.1140 cc         1 G7T       0.435500
     17 C09          4.2600     0.1440     0.0250 ca         1 G7T      -0.129900
     18 C11          3.8890    -1.6280    -1.7570 c3         1 G7T      -0.051800
     19 C12          2.0430    -0.2260    -0.8500 ca         1 G7T      -0.141000
     20 N14          0.1770     1.1370     0.0210 ns         1 G7T      -0.146000
     21 C16         -2.2070     1.2600    -0.2760 c3         1 G7T      -0.152400
     22 C18         -4.7030     0.9660    -0.0430 c          1 G7T       0.586700
     23 C19         -5.9200     0.1050     0.0290 ca         1 G7T      -0.204600
     24 F23        -10.4990     0.4040    -0.3730 f          1 G7T      -0.106000
     25 F24        -10.2100     0.1090     1.7380 f          1 G7T      -0.106000
     26 F25         -9.5290     1.9200     0.8020 f          1 G7T      -0.106000
     27 C29         -5.8710    -1.2750    -0.1490 ca         1 G7T      -0.017000
     28 O30         -4.7980     2.1680     0.0770 o          1 G7T      -0.519100
     29 O31         -0.8350    -0.4360    -1.2720 o          1 G7T      -0.582100
     30 C32          2.3920     1.4650     0.8200 ca         1 G7T      -0.179000
     31 C33          3.7360     1.1490     0.8380 ca         1 G7T      -0.077000
     32 N34          6.1220    -1.3840     0.3440 nd         1 G7T      -0.517100
     33 N35          7.4590    -1.3430     0.4050 na         1 G7T      -0.018100
     34 C36          8.2290    -2.5580     0.6340 c3         1 G7T       0.111300
     35 C37          7.8500    -3.1910     1.9640 c3         1 G7T      -0.104100
     36 C38          8.0670    -3.5190    -0.5350 c3         1 G7T      -0.104100
     37 H171        -3.4190    -0.2690    -1.2010 hc         1 G7T       0.081200
     38 H1          -3.2370    -0.4610     0.5220 hc         1 G7T       0.081200
     39 H201        -7.1850     1.7840     0.4180 ha         1 G7T       0.156000
     40 H281        -6.9890    -3.1130    -0.2150 ha         1 G7T       0.146000
     41 H011         6.4000     3.9190    -0.7680 hn         1 G7T       0.503500
     42 H012         5.1710     2.7200    -0.6360 hn         1 G7T       0.503500
     43 H041        10.3240     1.9900    -0.0320 h5         1 G7T       0.045100
     44 H112         4.0500    -2.5640    -1.2210 hc         1 G7T       0.050700
     45 H111         3.1640    -1.8190    -2.5470 hc         1 G7T       0.050700
     46 H113         4.8380    -1.3650    -2.2220 hc         1 G7T       0.050700
     47 H121         1.3950    -0.7600    -1.5260 ha         1 G7T       0.148000
     48 H141        -0.0200     1.9330     0.6090 hn         1 G7T       0.152000
     49 H161        -2.1520     1.8060     0.6670 hc         1 G7T       0.074700
     50 H2          -2.3470     2.0110    -1.0590 hc         1 G7T       0.074700
     51 H291        -4.9360    -1.7790    -0.3510 ha         1 G7T       0.129000
     52 H321         2.0140     2.2450     1.4690 ha         1 G7T       0.113000
     53 H331         4.3890     1.6810     1.5190 ha         1 G7T       0.122000
     54 H361         9.2680    -2.2270     0.6810 h1         1 G7T       0.082700
     55 H373         6.8220    -3.5510     1.9530 hc         1 G7T       0.048200
     56 H371         8.5020    -4.0410     2.1650 hc         1 G7T       0.048200
     57 H372         7.9600    -2.4820     2.7850 hc         1 G7T       0.048200
     58 H381         8.3780    -3.0580    -1.4720 hc         1 G7T       0.048200
     59 H383         8.6820    -4.4040    -0.3730 hc         1 G7T       0.048200
     60 H382         7.0300    -3.8410    -0.6360 hc         1 G7T       0.048200
     61 N01          6.1330     2.9820    -0.5150 nv         1 G7T      -1.069900
     62 F27         -9.3300    -2.1480     0.2480 f          1 G7T      -0.152000
@<TRIPOS>BOND
     1     1    17 ar  
     2     1    18 1   
     3     1    19 ar  
     4     2    19 ar  
     5     2    20 1   
     6     2    30 ar  
     7     3    20 1   
     8     3    21 1   
     9     3    29 2   
    10     4    21 1   
    11     4    22 1   
    12     4    37 1   
    13     4    38 1   
    14     5     6 ar  
    15     5    23 ar  
    16     5    39 1   
    17     6     7 1   
    18     6     8 ar  
    19     7    24 1   
    20     7    25 1   
    21     7    26 1   
    22     8     9 ar  
    23     8    62 1   
    24     9    27 ar  
    25     9    40 1   
    26    10    11 ar  
    27    10    15 ar  
    28    10    61 1   
    29    11    12 ar  
    30    12    13 ar  
    31    12    43 1   
    32    13    14 ar  
    33    14    15 ar  
    34    14    33 1   
    35    15    16 1   
    36    16    17 1   
    37    16    32 2   
    38    17    31 ar  
    39    18    44 1   
    40    18    45 1   
    41    18    46 1   
    42    19    47 1   
    43    20    48 1   
    44    21    49 1   
    45    21    50 1   
    46    22    23 1   
    47    22    28 2   
    48    23    27 ar  
    49    27    51 1   
    50    30    31 ar  
    51    30    52 1   
    52    31    53 1   
    53    32    33 1   
    54    33    34 1   
    55    34    35 1   
    56    34    36 1   
    57    34    54 1   
    58    35    55 1   
    59    35    56 1   
    60    35    57 1   
    61    36    58 1   
    62    36    59 1   
    63    36    60 1   
    64    41    61 1   
    65    42    61 1   
@<TRIPOS>SUBSTRUCTURE
     1 G7T         1 TEMP              0 ****  ****    0 ROOT
