@<TRIPOS>MOLECULE
G7T
   62    65     1     0     0
SMALL
No Charge or Current Charge


@<TRIPOS>ATOM
      1 C10          3.4220    -0.4400    -1.0990 ca         1 G7T      -0.012300
      2 C13          1.4620     0.7980    -0.2890 ca         1 G7T      -0.011000
      3 C15         -0.8760     1.0480    -1.3350 c          1 G7T       0.606100
      4 C17         -3.3080     0.6330    -0.6270 c3         1 G7T      -0.167400
      5 C20         -7.1140     0.7180     0.3550 ca         1 G7T       0.017000
      6 C21         -8.1820    -0.1500     0.6820 ca         1 G7T      -0.263300
      7 C22         -9.5790     0.3930     1.0040 c3         1 G7T       0.371300
      8 C26         -7.9460    -1.5370     0.7080 ca         1 G7T       0.252000
      9 C28         -6.6760    -2.0490     0.4160 ca         1 G7T      -0.174000
     10 C02          6.8120     1.9050     0.0060 ca         1 G7T       0.457900
     11 N03          8.0160     2.4910     0.0480 nb         1 G7T      -0.314000
     12 C04          9.0700     1.6760     0.3010 ca         1 G7T       0.195900
     13 N05          9.0280     0.3370     0.5010 nb         1 G7T      -0.234000
     14 C06          7.7990    -0.2150     0.4510 ca         1 G7T       0.157500
     15 C07          6.6850     0.5390     0.2210 ca         1 G7T      -0.384900
     16 C08          5.5700    -0.3720     0.2070 cc         1 G7T       0.435500
     17 C09          4.1730     0.0200     0.0090 ca         1 G7T      -0.129900
     18 C11          4.0470    -1.3400    -2.1610 c3         1 G7T      -0.051800
     19 C12          2.0740    -0.0480    -1.2380 ca         1 G7T      -0.141000
     20 N14          0.1080     1.2270    -0.3700 ns         1 G7T      -0.146000
     21 C16         -2.2250     1.6950    -0.9880 c3         1 G7T      -0.152400
     22 C18         -4.7090     1.1790    -0.2870 c          1 G7T       0.586700
     23 C19         -5.8260     0.2120     0.0580 ca         1 G7T      -0.204600
     24 F23        -10.5080    -0.0840     0.1460 f          1 G7T      -0.106000
     25 F24         -9.9720     0.0470     2.2510 f          1 G7T      -0.106000
     26 F25         -9.6510     1.7420     0.9390 f          1 G7T      -0.106000
     27 C29         -5.6180    -1.1870     0.0920 ca         1 G7T      -0.017000
     28 O30         -4.9170     2.3870    -0.2940 o          1 G7T      -0.519100
     29 O31         -0.7100     0.4570    -2.3950 o          1 G7T      -0.582100
     30 C32          2.2160     1.2420     0.8090 ca         1 G7T      -0.179000
     31 C33          3.5570     0.8560     0.9590 ca         1 G7T      -0.077000
     32 N34          5.9550    -1.6380     0.4070 nd         1 G7T      -0.517100
     33 N35          7.3350    -1.5150     0.5630 na         1 G7T      -0.018100
     34 C36          8.2220    -2.6790     0.7960 c3         1 G7T       0.111300
     35 C37          7.8810    -3.4080     2.1150 c3         1 G7T      -0.104100
     36 C38          8.2310    -3.6440    -0.4100 c3         1 G7T      -0.104100
     37 H171        -3.4280    -0.1080    -1.4260 hc         1 G7T       0.081200
     38 H1          -2.9870    -0.0010     0.2080 hc         1 G7T       0.081200
     39 H201        -7.2800     1.7940     0.3310 ha         1 G7T       0.156000
     40 H281        -6.5130    -3.1230     0.4410 ha         1 G7T       0.146000
     41 H011         5.9680     3.6420    -0.6440 hn         1 G7T       0.503500
     42 H012         4.8750     2.3000    -0.5060 hn         1 G7T       0.503500
     43 H041        10.0530     2.1440     0.3380 h5         1 G7T       0.045100
     44 H112         4.1730    -2.3620    -1.7840 hc         1 G7T       0.050700
     45 H111         3.4280    -1.3950    -3.0640 hc         1 G7T       0.050700
     46 H113         5.0330    -0.9690    -2.4680 hc         1 G7T       0.050700
     47 H121         1.5180    -0.4170    -2.0930 ha         1 G7T       0.148000
     48 H141        -0.1960     1.7600     0.4340 hn         1 G7T       0.152000
     49 H161        -2.1060     2.3760    -0.1370 hc         1 G7T       0.074700
     50 H2          -2.5700     2.2580    -1.8640 hc         1 G7T       0.074700
     51 H291        -4.6470    -1.6240    -0.1270 ha         1 G7T       0.129000
     52 H321         1.7630     1.8900     1.5560 ha         1 G7T       0.113000
     53 H331         4.1220     1.2050     1.8220 ha         1 G7T       0.122000
     54 H361         9.2440    -2.2940     0.9030 h1         1 G7T       0.082700
     55 H373         6.8760    -3.8450     2.0730 hc         1 G7T       0.048200
     56 H371         8.5980    -4.2150     2.3060 hc         1 G7T       0.048200
     57 H372         7.9190    -2.7110     2.9600 hc         1 G7T       0.048200
     58 H381         8.5180    -3.1110    -1.3250 hc         1 G7T       0.048200
     59 H383         8.9500    -4.4560    -0.2490 hc         1 G7T       0.048200
     60 H382         7.2400    -4.0870    -0.5650 hc         1 G7T       0.048200
     61 N01          5.7710     2.7160    -0.2740 nv         1 G7T      -1.069900
     62 F27         -8.9410    -2.4000     1.0150 f          1 G7T      -0.152000
@<TRIPOS>BOND
     1     1    17 ar  
     2     1    18 1   
     3     1    19 ar  
     4     2    19 ar  
     5     2    20 1   
     6     2    30 ar  
     7     3    20 1   
     8     3    21 1   
     9     3    29 2   
    10     4    21 1   
    11     4    22 1   
    12     4    37 1   
    13     4    38 1   
    14     5     6 ar  
    15     5    23 ar  
    16     5    39 1   
    17     6     7 1   
    18     6     8 ar  
    19     7    24 1   
    20     7    25 1   
    21     7    26 1   
    22     8     9 ar  
    23     8    62 1   
    24     9    27 ar  
    25     9    40 1   
    26    10    11 ar  
    27    10    15 ar  
    28    10    61 1   
    29    11    12 ar  
    30    12    13 ar  
    31    12    43 1   
    32    13    14 ar  
    33    14    15 ar  
    34    14    33 1   
    35    15    16 1   
    36    16    17 1   
    37    16    32 2   
    38    17    31 ar  
    39    18    44 1   
    40    18    45 1   
    41    18    46 1   
    42    19    47 1   
    43    20    48 1   
    44    21    49 1   
    45    21    50 1   
    46    22    23 1   
    47    22    28 2   
    48    23    27 ar  
    49    27    51 1   
    50    30    31 ar  
    51    30    52 1   
    52    31    53 1   
    53    32    33 1   
    54    33    34 1   
    55    34    35 1   
    56    34    36 1   
    57    34    54 1   
    58    35    55 1   
    59    35    56 1   
    60    35    57 1   
    61    36    58 1   
    62    36    59 1   
    63    36    60 1   
    64    41    61 1   
    65    42    61 1   
@<TRIPOS>SUBSTRUCTURE
     1 G7T         1 TEMP              0 ****  ****    0 ROOT
