@<TRIPOS>MOLECULE
G7U
   79    78     1     0     0
SMALL
No Charge or Current Charge


@<TRIPOS>ATOM
      1 C2          10.0660    16.1360    21.1870 c3         1 G7U      -0.076400
      2 C3          10.9140    16.7580    20.0570 c3         1 G7U      -0.077400
      3 C4          12.2640    16.0320    19.8470 c3         1 G7U      -0.072400
      4 C1           8.7190    16.8550    21.3960 c3         1 G7U      -0.088100
      5 C10         15.0180    16.7260    13.1660 c3         1 G7U      -0.190400
      6 C11         14.5710    16.3920    11.7220 c3         1 G7U       0.099300
      7 C12         14.7000    17.6230    10.7590 c          1 G7U       0.618100
      8 C13         13.3740    19.0930     9.1900 c3         1 G7U       0.084000
      9 C14         13.8520    18.6370     7.7920 c3         1 G7U       0.068000
     10 C15         13.5380    16.1490     7.4760 c          1 G7U       0.592100
     11 C16         12.5720    15.0940     6.9500 c3         1 G7U      -0.187400
     12 C17         11.8700    14.3840     8.1210 c3         1 G7U       0.119000
     13 C18         11.1830    12.1320     7.2000 c          1 G7U       0.587100
     14 C19          9.9240    11.3100     6.7330 c3         1 G7U       0.146300
     15 C20          9.4410    10.2350     7.7800 c3         1 G7U      -0.090000
     16 C21          9.0870    10.9100     9.1370 c3         1 G7U      -0.071600
     17 C22         10.5690     9.1940     8.0400 c3         1 G7U      -0.071600
     18 C23          8.1690     9.4700     7.2780 c3         1 G7U       0.243600
     19 C5          13.1820    16.6790    18.7830 c3         1 G7U      -0.072400
     20 C6          12.6290    16.6250    17.3390 c3         1 G7U      -0.077400
     21 C7          13.6110    17.1990    16.2960 c3         1 G7U      -0.068400
     22 C8          13.0560    17.1490    14.8530 c3         1 G7U      -0.182400
     23 C9          14.0670    17.7190    13.8460 c          1 G7U       0.578100
     24 N1          13.5110    18.0490    10.2100 ns         1 G7U      -0.478900
     25 N2          13.1270    17.4530     7.3030 ns         1 G7U      -0.514900
     26 N3          10.8950    13.3990     7.6590 ns         1 G7U      -0.511900
     27 O1          14.1330    18.9210    13.6220 o          1 G7U      -0.512100
     28 O1P          8.0380     8.7000     3.5040 o          1 G7U      -0.900500
     29 O2          13.2300    15.8390    11.7630 oh         1 G7U      -0.671000
     30 O3          15.7680    18.1730    10.5100 o          1 G7U      -0.633100
     31 O4          14.6110    15.8580     7.9830 o          1 G7U      -0.615100
     32 O5          12.3370    11.7250     7.1110 o          1 G7U      -0.665100
     33 O6           8.8150    12.1770     6.3520 oh         1 G7U      -0.814000
     34 O7           8.4060     8.8890     5.9870 os         1 G7U      -0.601400
     35 O2P          7.6310    10.8380     4.5930 o          1 G7U      -0.900500
     36 P1           7.5200     9.3610     4.7320 p5         1 G7U       1.296900
     37 H1           9.8740    15.0800    20.9590 hc         1 G7U       0.034700
     38 H2          10.6330    16.1630    22.1260 hc         1 G7U       0.034700
     39 H3          11.1050    17.8140    20.2880 hc         1 G7U       0.038700
     40 H4          10.3340    16.7320    19.1270 hc         1 G7U       0.038700
     41 H5          12.0760    14.9860    19.5740 hc         1 G7U       0.035700
     42 H6          12.8050    16.0130    20.8010 hc         1 G7U       0.035700
     43 H7           8.1540    16.3800    22.2070 hc         1 G7U       0.029700
     44 H8           8.8780    17.9080    21.6610 hc         1 G7U       0.029700
     45 H9           8.1110    16.8150    20.4840 hc         1 G7U       0.029700
     46 H10         15.0390    15.7900    13.7370 hc         1 G7U       0.074700
     47 H11         16.0240    17.1600    13.1320 hc         1 G7U       0.074700
     48 H12         15.2630    15.6430    11.3150 h1         1 G7U       0.077700
     49 H13         13.9490    19.9740     9.5020 h1         1 G7U       0.052200
     50 H14         12.3170    19.3840     9.1330 h1         1 G7U       0.052200
     51 H15         14.9290    18.4210     7.8240 h1         1 G7U       0.064700
     52 H16         13.7020    19.4580     7.0780 h1         1 G7U       0.064700
     53 H17         11.8090    15.5580     6.3150 hc         1 G7U       0.076200
     54 H18         13.1380    14.3510     6.3770 hc         1 G7U       0.076200
     55 H19         12.6140    13.8830     8.7550 h1         1 G7U       0.037700
     56 H20         11.3450    15.1260     8.7370 h1         1 G7U       0.037700
     57 H21         10.2680    10.7680     5.8400 h1         1 G7U       0.081700
     58 H22          8.7330    10.1650     9.8610 hc         1 G7U       0.019200
     59 H23          9.9580    11.4090     9.5770 hc         1 G7U       0.019200
     60 H24          8.2930    11.6570     9.0150 hc         1 G7U       0.019200
     61 H25         10.2100     8.3820     8.6850 hc         1 G7U       0.019200
     62 H26         10.9210     8.7470     7.1020 hc         1 G7U       0.019200
     63 H27         11.4300     9.6500     8.5410 hc         1 G7U       0.019200
     64 H28          7.3150    10.1610     7.2520 h1         1 G7U       0.006200
     65 H29          7.9140     8.6810     7.9980 h1         1 G7U       0.006200
     66 H30         14.1510    16.1650    18.8070 hc         1 G7U       0.038700
     67 H31         13.3760    17.7230    19.0600 hc         1 G7U       0.038700
     68 H32         11.6890    17.1870    17.2850 hc         1 G7U       0.039200
     69 H33         12.3970    15.5840    17.0810 hc         1 G7U       0.039200
     70 H34         14.5540    16.6390    16.3410 hc         1 G7U       0.043700
     71 H35         13.8460    18.2390    16.5570 hc         1 G7U       0.043700
     72 H36         12.1310    17.7350    14.8060 hc         1 G7U       0.063200
     73 H37         12.8560    16.0980    14.6150 hc         1 G7U       0.063200
     74 H38         12.6990    17.5060    10.4830 hn         1 G7U       0.338500
     75 H39         12.2300    17.5900     6.8520 hn         1 G7U       0.308500
     76 H40          9.9110    13.6460     7.6170 hn         1 G7U       0.355500
     77 H42         13.2990    14.9070    12.0710 ho         1 G7U       0.464000
     78 H43          8.3030    11.6520     5.6340 ho         1 G7U       0.570000
     79 O3P          6.1020     8.9680     4.9520 o          1 G7U      -0.900500
@<TRIPOS>BOND
     1     1     2 1   
     2     1     4 1   
     3     1    37 1   
     4     1    38 1   
     5     2     3 1   
     6     2    39 1   
     7     2    40 1   
     8     3    19 1   
     9     3    41 1   
    10     3    42 1   
    11     4    43 1   
    12     4    44 1   
    13     4    45 1   
    14     5     6 1   
    15     5    23 1   
    16     5    46 1   
    17     5    47 1   
    18     6     7 1   
    19     6    29 1   
    20     6    48 1   
    21     7    24 1   
    22     7    30 2   
    23     8     9 1   
    24     8    24 1   
    25     8    49 1   
    26     8    50 1   
    27     9    25 1   
    28     9    51 1   
    29     9    52 1   
    30    10    11 1   
    31    10    25 1   
    32    10    31 2   
    33    11    12 1   
    34    11    53 1   
    35    11    54 1   
    36    12    26 1   
    37    12    55 1   
    38    12    56 1   
    39    13    14 1   
    40    13    26 1   
    41    13    32 2   
    42    14    15 1   
    43    14    33 1   
    44    14    57 1   
    45    15    16 1   
    46    15    17 1   
    47    15    18 1   
    48    16    58 1   
    49    16    59 1   
    50    16    60 1   
    51    17    61 1   
    52    17    62 1   
    53    17    63 1   
    54    18    34 1   
    55    18    64 1   
    56    18    65 1   
    57    19    20 1   
    58    19    66 1   
    59    19    67 1   
    60    20    21 1   
    61    20    68 1   
    62    20    69 1   
    63    21    22 1   
    64    21    70 1   
    65    21    71 1   
    66    22    23 1   
    67    22    72 1   
    68    22    73 1   
    69    23    27 2   
    70    24    74 1   
    71    25    75 1   
    72    26    76 1   
    73    28    36 1   
    74    29    77 1   
    75    33    78 1   
    76    34    36 1   
    77    35    36 1   
    78    36    79 1   
@<TRIPOS>SUBSTRUCTURE
     1 G7U         1 TEMP              0 ****  ****    0 ROOT
