@<TRIPOS>MOLECULE
G7U
   79    78     1     0     0
SMALL
abcg2


@<TRIPOS>ATOM
      1 C2          11.4320    16.8530    22.1110 c3         1 G7U      -0.076400
      2 C3          11.8480    17.1770    20.6780 c3         1 G7U      -0.077400
      3 C4          12.6800    16.0720    20.0280 c3         1 G7U      -0.072400
      4 C1          10.5860    17.9510    22.7510 c3         1 G7U      -0.088100
      5 C10         12.8610    16.1550    13.1340 c3         1 G7U      -0.190400
      6 C11         12.8480    16.1260    11.6100 c3         1 G7U       0.099300
      7 C12         13.4940    17.3670    10.9920 c          1 G7U       0.618100
      8 C13         13.3970    18.9420     9.1130 c3         1 G7U       0.084000
      9 C14         14.3710    18.3760     8.0730 c3         1 G7U       0.068000
     10 C15         13.9370    16.0030     7.5640 c          1 G7U       0.592100
     11 C16         13.0160    15.0510     6.8320 c3         1 G7U      -0.187400
     12 C17         12.0090    14.4510     7.8280 c3         1 G7U       0.119000
     13 C18         11.4740    12.1760     7.0760 c          1 G7U       0.587100
     14 C19         10.3980    11.2980     6.4380 c3         1 G7U       0.146300
     15 C20          9.7890    10.2870     7.4640 c3         1 G7U      -0.090000
     16 C21          9.2700    11.0210     8.7040 c3         1 G7U      -0.071600
     17 C22         10.8150     9.2240     7.8700 c3         1 G7U      -0.071600
     18 C23          8.5910     9.5910     6.7990 c3         1 G7U       0.243600
     19 C5          13.1910    16.4040    18.6240 c3         1 G7U      -0.072400
     20 C6          12.0890    16.5870    17.5820 c3         1 G7U      -0.077400
     21 C7          12.6350    16.8070    16.1730 c3         1 G7U      -0.068400
     22 C8          11.5090    17.0170    15.1490 c3         1 G7U      -0.182400
     23 C9          12.0050    17.2460    13.7440 c          1 G7U       0.578100
     24 N1          12.8370    17.9070     9.9600 ns         1 G7U      -0.478900
     25 N2          13.7620    17.3130     7.2950 ns         1 G7U      -0.514900
     26 N3          11.1370    13.4670     7.2260 ns         1 G7U      -0.511900
     27 O1          11.7450    18.2660    13.1320 o          1 G7U      -0.512100
     28 O1P          8.8510     8.4430     3.1600 o          1 G7U      -0.900500
     29 O2          11.5270    15.9370    11.1030 oh         1 G7U      -0.671000
     30 O3          14.5820    17.7700    11.4070 o          1 G7U      -0.633100
     31 O4          14.7650    15.5850     8.3770 o          1 G7U      -0.615100
     32 O5          12.5620    11.7190     7.4420 o          1 G7U      -0.665100
     33 O6           9.4110    12.1250     5.8580 oh         1 G7U      -0.814000
     34 O7           8.9620     8.9300     5.5960 os         1 G7U      -0.601400
     35 O2P          8.2570    10.7840     4.0030 o          1 G7U      -0.900500
     36 P1           8.1080     9.2610     4.1980 p5         1 G7U       1.296900
     37 H1          10.8740    15.9100    22.1180 hc         1 G7U       0.034700
     38 H2          12.3290    16.6820    22.7170 hc         1 G7U       0.034700
     39 H3          12.4230    18.1110    20.6720 hc         1 G7U       0.038700
     40 H4          10.9490    17.3670    20.0840 hc         1 G7U       0.038700
     41 H5          12.0840    15.1520    19.9860 hc         1 G7U       0.035700
     42 H6          13.5380    15.8520    20.6730 hc         1 G7U       0.035700
     43 H7          10.3030    17.6950    23.7740 hc         1 G7U       0.029700
     44 H8          11.1320    18.8980    22.7820 hc         1 G7U       0.029700
     45 H9           9.6670    18.1180    22.1820 hc         1 G7U       0.029700
     46 H10         12.5530    15.1830    13.5210 hc         1 G7U       0.074700
     47 H11         13.8860    16.3160    13.4810 hc         1 G7U       0.074700
     48 H12         13.4850    15.2990    11.2850 h1         1 G7U       0.077700
     49 H13         13.9190    19.6740     9.7310 h1         1 G7U       0.052200
     50 H14         12.5690    19.4460     8.6150 h1         1 G7U       0.052200
     51 H15         15.2450    17.9620     8.5690 h1         1 G7U       0.064700
     52 H16         14.6960    19.1770     7.4080 h1         1 G7U       0.064700
     53 H17         12.4820    15.5510     6.0230 hc         1 G7U       0.076200
     54 H18         13.6190    14.2480     6.4080 hc         1 G7U       0.076200
     55 H19         12.5530    13.9790     8.6460 h1         1 G7U       0.037700
     56 H20         11.3870    15.2420     8.2480 h1         1 G7U       0.037700
     57 H21         10.9020    10.7100     5.6630 h1         1 G7U       0.081700
     58 H22          8.7240    10.3330     9.3540 hc         1 G7U       0.019200
     59 H23         10.0920    11.4440     9.2860 hc         1 G7U       0.019200
     60 H24          8.5950    11.8330     8.4250 hc         1 G7U       0.019200
     61 H25         10.3420     8.4940     8.5320 hc         1 G7U       0.019200
     62 H26         11.1920     8.6920     6.9950 hc         1 G7U       0.019200
     63 H27         11.6620     9.6650     8.3920 hc         1 G7U       0.019200
     64 H28          7.8030    10.3210     6.6100 h1         1 G7U       0.006200
     65 H29          8.1940     8.8510     7.5030 h1         1 G7U       0.006200
     66 H30         13.8590    15.6020    18.2920 hc         1 G7U       0.038700
     67 H31         13.8000    17.3140    18.6680 hc         1 G7U       0.038700
     68 H32         11.4530    17.4340    17.8530 hc         1 G7U       0.039200
     69 H33         11.4410    15.7020    17.5810 hc         1 G7U       0.039200
     70 H34         13.2480    15.9490    15.8850 hc         1 G7U       0.043700
     71 H35         13.2940    17.6810    16.1670 hc         1 G7U       0.043700
     72 H36         10.8900    17.8690    15.4340 hc         1 G7U       0.063200
     73 H37         10.8740    16.1240    15.1320 hc         1 G7U       0.063200
     74 H38         11.9810    17.4520     9.6830 hn         1 G7U       0.338500
     75 H39         13.0280    17.5650     6.6510 hn         1 G7U       0.308500
     76 H40         10.2570    13.7480     6.8210 hn         1 G7U       0.355500
     77 H42         11.3960    15.0000    10.9220 ho         1 G7U       0.464000
     78 H43          8.9450    11.6020     5.1220 ho         1 G7U       0.570000
     79 O3P          6.6680     8.8460     4.4520 o          1 G7U      -0.900500
@<TRIPOS>BOND
     1     1     2 1   
     2     1     4 1   
     3     1    37 1   
     4     1    38 1   
     5     2     3 1   
     6     2    39 1   
     7     2    40 1   
     8     3    19 1   
     9     3    41 1   
    10     3    42 1   
    11     4    43 1   
    12     4    44 1   
    13     4    45 1   
    14     5     6 1   
    15     5    23 1   
    16     5    46 1   
    17     5    47 1   
    18     6     7 1   
    19     6    29 1   
    20     6    48 1   
    21     7    24 1   
    22     7    30 2   
    23     8     9 1   
    24     8    24 1   
    25     8    49 1   
    26     8    50 1   
    27     9    25 1   
    28     9    51 1   
    29     9    52 1   
    30    10    11 1   
    31    10    25 1   
    32    10    31 2   
    33    11    12 1   
    34    11    53 1   
    35    11    54 1   
    36    12    26 1   
    37    12    55 1   
    38    12    56 1   
    39    13    14 1   
    40    13    26 1   
    41    13    32 2   
    42    14    15 1   
    43    14    33 1   
    44    14    57 1   
    45    15    16 1   
    46    15    17 1   
    47    15    18 1   
    48    16    58 1   
    49    16    59 1   
    50    16    60 1   
    51    17    61 1   
    52    17    62 1   
    53    17    63 1   
    54    18    34 1   
    55    18    64 1   
    56    18    65 1   
    57    19    20 1   
    58    19    66 1   
    59    19    67 1   
    60    20    21 1   
    61    20    68 1   
    62    20    69 1   
    63    21    22 1   
    64    21    70 1   
    65    21    71 1   
    66    22    23 1   
    67    22    72 1   
    68    22    73 1   
    69    23    27 2   
    70    24    74 1   
    71    25    75 1   
    72    26    76 1   
    73    28    36 1   
    74    29    77 1   
    75    33    78 1   
    76    34    36 1   
    77    35    36 1   
    78    36    79 1   
@<TRIPOS>SUBSTRUCTURE
     1 G7U         1 TEMP              0 ****  ****    0 ROOT
