@<TRIPOS>MOLECULE
G7V
   49    52     1     0     0
SMALL
No Charge or Current Charge


@<TRIPOS>ATOM
      1 C1           0.4060     4.8950    -0.6400 cc         1 G7V      -0.214000
      2 C2           1.6210     5.4770    -0.8350 cd         1 G7V      -0.176000
      3 C10         -0.6800    -1.2640     0.5460 c6         1 G7V       0.295800
      4 C11         -1.8620    -2.2530     0.6610 c6         1 G7V      -0.116400
      5 C12         -3.0810    -1.6020     1.3500 c6         1 G7V       0.113700
      6 C19         -1.1080     0.1910     0.2880 ca         1 G7V      -0.146300
      7 C20         -0.1130     1.1650     0.0500 ca         1 G7V      -0.064000
      8 C21         -2.7980     1.9290     0.1310 ca         1 G7V      -0.092000
      9 C22         -1.8040     2.8870    -0.1220 ca         1 G7V      -0.080000
     10 C24          0.6160     3.5200    -0.4160 cc         1 G7V       0.302500
     11 C01         -4.1400    -2.6970     1.6750 c3         1 G7V      -0.094100
     12 C03          4.0810    -3.2560     0.1100 ca         1 G7V      -0.098000
     13 C04          3.0350    -3.6180     0.9810 ca         1 G7V      -0.014000
     14 C05          1.7410    -3.1080     0.7730 ca         1 G7V      -0.212000
     15 C06          3.8230    -2.3880    -0.9670 ca         1 G7V      -0.014000
     16 C07          2.5260    -1.8840    -1.1680 ca         1 G7V      -0.212000
     17 C08          1.4860    -2.2370    -0.2980 ca         1 G7V       0.378000
     18 C18         -2.4650     0.5810     0.3810 ca         1 G7V      -0.037000
     19 C23         -0.4420     2.5220    -0.1620 ca         1 G7V      -0.118500
     20 N01         -3.4870    -0.4360     0.5020 n          1 G7V      -0.227400
     21 N14          6.4820    -4.1870     0.4930 n1         1 G7V      -0.478000
     22 N3           1.9000     3.2040    -0.4600 nd         1 G7V      -0.518800
     23 N4           2.5300     4.4210    -0.7200 na         1 G7V       0.004800
     24 H1          -0.5530     5.4000    -0.6550 ha         1 G7V       0.146000
     25 H2           1.9080     6.5040    -1.0360 h4         1 G7V       0.155000
     26 H3          -0.1510    -1.2570     1.5130 h1         1 G7V       0.066700
     27 H5          -2.1660    -2.5950    -0.3380 hc         1 G7V       0.058200
     28 H4          -1.5340    -3.1460     1.2090 hc         1 G7V       0.058200
     29 H6          -2.7480    -1.2020     2.3200 h1         1 G7V       0.064700
     30 H7          -5.5360    -0.2030    -2.1720 hc         1 G7V       0.062033
     31 H9          -5.1650     1.3460    -1.4160 hc         1 G7V       0.062033
     32 H8          -3.8250     0.3670    -1.9890 hc         1 G7V       0.062033
     33 H10          0.9290     0.8540     0.0300 ha         1 G7V       0.136000
     34 H11         -3.8320     2.2590     0.1760 ha         1 G7V       0.131000
     35 H12         -2.1120     3.9150    -0.2830 ha         1 G7V       0.118000
     36 H13         -3.6980    -3.5000     2.2770 hc         1 G7V       0.047033
     37 H14         -4.9710    -2.2890     2.2610 hc         1 G7V       0.047033
     38 H15         -4.5430    -3.1560     0.7650 hc         1 G7V       0.047033
     39 H16          3.2220    -4.2920     1.8150 ha         1 G7V       0.119500
     40 H17          0.9400    -3.4000     1.4450 ha         1 G7V       0.116500
     41 H18          4.6240    -2.1030    -1.6490 ha         1 G7V       0.119500
     42 H19          2.3350    -1.2130    -2.0000 ha         1 G7V       0.116500
     43 H20          0.1290    -1.2180    -1.4040 hn         1 G7V       0.491000
     44 H21          3.5440     4.4870    -0.8090 hn         1 G7V       0.373000
     45 N09          0.2150    -1.7230    -0.5230 nu         1 G7V      -0.971200
     46 C15         -4.7580    -0.3420    -0.1420 c          1 G7V       0.600100
     47 C13          5.4040    -3.7740     0.3190 cg         1 G7V       0.340000
     48 C16         -4.8170     0.3140    -1.5280 c3         1 G7V      -0.174100
     49 O17         -5.7840    -0.8230     0.3240 o          1 G7V      -0.578100
@<TRIPOS>BOND
     1     1     2 2   
     2     1    10 1   
     3     1    24 1   
     4     2    23 1   
     5     2    25 1   
     6     3     4 1   
     7     3     6 1   
     8     3    26 1   
     9     3    45 1   
    10     4     5 1   
    11     4    27 1   
    12     4    28 1   
    13     5    11 1   
    14     5    20 1   
    15     5    29 1   
    16     6     7 ar  
    17     6    18 ar  
    18     7    19 ar  
    19     7    33 1   
    20     8     9 ar  
    21     8    18 ar  
    22     8    34 1   
    23     9    19 ar  
    24     9    35 1   
    25    10    19 1   
    26    10    22 2   
    27    11    36 1   
    28    11    37 1   
    29    11    38 1   
    30    12    13 ar  
    31    12    15 ar  
    32    12    47 1   
    33    13    14 ar  
    34    13    39 1   
    35    14    17 ar  
    36    14    40 1   
    37    15    16 ar  
    38    15    41 1   
    39    16    17 ar  
    40    16    42 1   
    41    17    45 1   
    42    18    20 1   
    43    20    46 1   
    44    21    47 3   
    45    22    23 1   
    46    23    44 1   
    47    30    48 1   
    48    31    48 1   
    49    32    48 1   
    50    43    45 1   
    51    46    48 1   
    52    46    49 2   
@<TRIPOS>SUBSTRUCTURE
     1 G7V         1 TEMP              0 ****  ****    0 ROOT
