@<TRIPOS>MOLECULE
G7V
   49    52     1     0     0
SMALL
abcg2


@<TRIPOS>ATOM
      1 C1           0.8190     4.8170     0.2680 cc         1 G7V      -0.214000
      2 C2           2.1420     5.1860     0.2970 cd         1 G7V      -0.176000
      3 C10         -0.8410    -1.2910     0.2910 c6         1 G7V       0.295800
      4 C11         -2.1020    -2.1590     0.2620 c6         1 G7V      -0.116400
      5 C12         -3.2300    -1.4330     0.9850 c6         1 G7V       0.113700
      6 C19         -1.1430     0.2010     0.2430 ca         1 G7V      -0.146300
      7 C20         -0.0840     1.1010     0.2740 ca         1 G7V      -0.064000
      8 C21         -2.6680     2.0650     0.2980 ca         1 G7V      -0.092000
      9 C22         -1.6040     2.9450     0.3280 ca         1 G7V      -0.080000
     10 C24          0.8430     3.4060     0.3150 cc         1 G7V       0.302500
     11 C01         -4.3770    -2.3400     1.3980 c3         1 G7V      -0.094100
     12 C03          4.1140    -2.7120    -0.4180 ca         1 G7V      -0.098000
     13 C04          3.4080    -2.3050     0.7160 ca         1 G7V      -0.014000
     14 C05          2.0780    -1.9550     0.6360 ca         1 G7V      -0.212000
     15 C06          3.4470    -2.7570    -1.6490 ca         1 G7V      -0.014000
     16 C07          2.1200    -2.4130    -1.7350 ca         1 G7V      -0.212000
     17 C08          1.3930    -2.0090    -0.5940 ca         1 G7V       0.378000
     18 C18         -2.4480     0.6920     0.2340 ca         1 G7V      -0.037000
     19 C23         -0.2890     2.4760     0.3020 ca         1 G7V      -0.118500
     20 N01         -3.5340    -0.2250     0.1910 n          1 G7V      -0.227400
     21 N14          6.5990    -3.3610    -0.2490 n1         1 G7V      -0.478000
     22 N3           2.0920     2.9620     0.3690 nd         1 G7V      -0.518800
     23 N4           2.8490     4.0470     0.3570 na         1 G7V       0.004800
     24 H1          -0.0320     5.4740     0.2140 ha         1 G7V       0.146000
     25 H2           2.6160     6.1540     0.2780 h4         1 G7V       0.155000
     26 H3          -0.3720    -1.4770     1.2580 h1         1 G7V       0.066700
     27 H5          -2.4140    -2.3660    -0.7660 hc         1 G7V       0.058200
     28 H4          -1.8820    -3.1190     0.7300 hc         1 G7V       0.058200
     29 H6          -2.8340    -1.0360     1.9240 h1         1 G7V       0.064700
     30 H7          -6.0660    -1.3430    -0.2850 hc         1 G7V       0.062033
     31 H9          -5.9880    -0.9330    -1.9990 hc         1 G7V       0.062033
     32 H8          -4.9310    -2.1790    -1.3420 hc         1 G7V       0.062033
     33 H10          0.9320     0.7240     0.2720 ha         1 G7V       0.136000
     34 H11         -3.6780     2.4490     0.3380 ha         1 G7V       0.131000
     35 H12         -1.8040     4.0070     0.3810 ha         1 G7V       0.118000
     36 H13         -4.0120    -2.9650     2.2130 hc         1 G7V       0.047033
     37 H14         -5.2260    -1.7720     1.7770 hc         1 G7V       0.047033
     38 H15         -4.7190    -3.0080     0.6110 hc         1 G7V       0.047033
     39 H16          3.9080    -2.2560     1.6740 ha         1 G7V       0.119500
     40 H17          1.5800    -1.6330     1.5400 ha         1 G7V       0.116500
     41 H18          3.9760    -3.0650    -2.5420 ha         1 G7V       0.119500
     42 H19          1.6200    -2.4550    -2.6950 ha         1 G7V       0.116500
     43 H20         -0.2840    -1.7190    -1.6750 hn         1 G7V       0.491000
     44 H21          3.8520     3.9580     0.3900 hn         1 G7V       0.373000
     45 N09          0.0850    -1.6960    -0.7370 nu         1 G7V      -0.971200
     46 C15         -4.3720    -0.1370    -0.8950 c          1 G7V       0.600100
     47 C13          5.4840    -3.0700    -0.3250 cg         1 G7V       0.340000
     48 C16         -5.3960    -1.2150    -1.1320 c3         1 G7V      -0.174100
     49 O17         -4.3020     0.8090    -1.6620 o          1 G7V      -0.578100
@<TRIPOS>BOND
     1     1     2 2   
     2     1    10 1   
     3     1    24 1   
     4     2    23 1   
     5     2    25 1   
     6     3     4 1   
     7     3     6 1   
     8     3    26 1   
     9     3    45 1   
    10     4     5 1   
    11     4    27 1   
    12     4    28 1   
    13     5    11 1   
    14     5    20 1   
    15     5    29 1   
    16     6     7 ar  
    17     6    18 ar  
    18     7    19 ar  
    19     7    33 1   
    20     8     9 ar  
    21     8    18 ar  
    22     8    34 1   
    23     9    19 ar  
    24     9    35 1   
    25    10    19 1   
    26    10    22 2   
    27    11    36 1   
    28    11    37 1   
    29    11    38 1   
    30    12    13 ar  
    31    12    15 ar  
    32    12    47 1   
    33    13    14 ar  
    34    13    39 1   
    35    14    17 ar  
    36    14    40 1   
    37    15    16 ar  
    38    15    41 1   
    39    16    17 ar  
    40    16    42 1   
    41    17    45 1   
    42    18    20 1   
    43    20    46 1   
    44    21    47 3   
    45    22    23 1   
    46    23    44 1   
    47    30    48 1   
    48    31    48 1   
    49    32    48 1   
    50    43    45 1   
    51    46    48 1   
    52    46    49 2   
@<TRIPOS>SUBSTRUCTURE
     1 G7V         1 TEMP              0 ****  ****    0 ROOT
