@<TRIPOS>MOLECULE
G7W
   57    60     1     0     0
SMALL
bcc


@<TRIPOS>ATOM
      1 C13          3.8760     1.3210    -0.6060 ca         1 G7W      -0.085500
      2 C15          5.8590    -0.0960    -0.0930 cc         1 G7W       0.433500
      3 C20          8.4540    -2.4280    -2.3290 c3         1 G7W      -0.104100
      4 C21          8.0710     0.0410     0.1460 ca         1 G7W       0.484800
      5 C28          3.5260    -0.8910     0.2290 ca         1 G7W      -0.085500
      6 C02         -8.1970    -1.0620     0.8020 ca         1 G7W       0.217900
      7 C03         -7.0300    -1.4730     1.4070 ca         1 G7W      -0.193000
      8 C04         -5.8320    -0.9200     0.9880 ca         1 G7W      -0.031000
      9 C05         -5.8050     0.0440    -0.0180 ca         1 G7W      -0.198600
     10 C06         -4.5480     0.6840    -0.4880 c          1 G7W       0.579900
     11 C07         -3.2530     0.0560    -0.1220 ce         1 G7W      -0.180200
     12 C08         -2.0980     0.6550    -0.4010 cf         1 G7W      -0.175200
     13 C09         -0.8000     0.0090    -0.0650 c          1 G7W       0.668300
     14 C11          1.6290     0.4900    -0.2980 ca         1 G7W       0.075600
     15 C12          2.5090     1.5060    -0.6790 ca         1 G7W      -0.170500
     16 C14          4.4100     0.1190    -0.1420 ca         1 G7W      -0.123900
     17 N16          6.3790    -1.2190    -0.5320 nd         1 G7W      -0.517100
     18 N17          7.7070    -1.1390    -0.3870 na         1 G7W       0.013200
     19 C18          8.5710    -2.2270    -0.8250 c3         1 G7W       0.082000
     20 C19          8.2710    -3.4980    -0.0450 c3         1 G7W      -0.104100
     21 N22          9.3130     0.4520     0.4220 nb         1 G7W      -0.759000
     22 C23          9.3290     1.6510     0.9660 ca         1 G7W       0.721900
     23 N24          8.2980     2.4340     1.2800 nb         1 G7W      -0.839000
     24 C25          7.0600     2.0100     1.0140 ca         1 G7W       0.784200
     25 N26          6.0420     2.7960     1.3710 nv         1 G7W      -0.958500
     26 C27          6.8940     0.7610     0.3700 ca         1 G7W      -0.511500
     27 C29          2.1530    -0.7200     0.1600 ca         1 G7W      -0.170500
     28 O30         -0.7290    -1.0830     0.4690 o          1 G7W      -0.572100
     29 O31         -4.5860     1.6860    -1.1710 o          1 G7W      -0.511100
     30 C32         -7.0060     0.4510    -0.5990 ca         1 G7W      -0.001000
     31 C33         -8.2100    -0.1010    -0.2040 ca         1 G7W      -0.262300
     32 C34         -9.5070     0.3080    -0.8370 c3         1 G7W       0.735200
     33 F35         -9.3330     1.2540    -1.7610 f          1 G7W      -0.227300
     34 F36        -10.1090    -0.7250    -1.4380 f          1 G7W      -0.227300
     35 F37        -10.3680     0.7930     0.0650 f          1 G7W      -0.227300
     36 H131         4.5280     2.1170    -0.9440 ha         1 G7W       0.144500
     37 H201         9.1530    -3.2000    -2.6520 hc         1 G7W       0.048533
     38 H202         7.4490    -2.7460    -2.6060 hc         1 G7W       0.048533
     39 H203         8.6900    -1.5120    -2.8700 hc         1 G7W       0.048533
     40 H281         3.9140    -1.8340     0.5920 ha         1 G7W       0.144500
     41 H031        -7.0580    -2.2160     2.1920 ha         1 G7W       0.165000
     42 H041        -4.9250    -1.2480     1.4760 ha         1 G7W       0.148000
     43 H1          -3.2480    -0.9130     0.3600 ha         1 G7W       0.159000
     44 H081        -2.0840     1.6250    -0.8850 ha         1 G7W       0.151000
     45 H101         0.0550     1.6580    -0.8430 hn         1 G7W       0.321500
     46 H121         2.1200     2.4460    -1.0520 ha         1 G7W       0.149000
     47 H181         9.5820    -1.8950    -0.5880 h1         1 G7W       0.082700
     48 H191         8.9710    -4.2800    -0.3370 hc         1 G7W       0.048533
     49 H193         8.3730    -3.3370     1.0280 hc         1 G7W       0.048533
     50 H192         7.2610    -3.8580    -0.2460 hc         1 G7W       0.048533
     51 H231        10.3080     2.0570     1.2020 h5         1 G7W       0.046100
     52 H262         6.2300     3.6260     1.9080 hn         1 G7W       0.446300
     53 H261         5.0910     2.4740     1.3320 hn         1 G7W       0.446300
     54 H291         1.5090    -1.5290     0.4620 ha         1 G7W       0.149000
     55 H321        -6.9820     1.2020    -1.3760 ha         1 G7W       0.174000
     56 N10          0.2670     0.7650    -0.4240 ns         1 G7W      -0.463100
     57 F01         -9.3490    -1.6030     1.1940 f          1 G7W      -0.115900
@<TRIPOS>BOND
     1     1    15 ar  
     2     1    16 ar  
     3     1    36 1   
     4     2    16 1   
     5     2    17 2   
     6     2    26 1   
     7     3    19 1   
     8     3    37 1   
     9     3    38 1   
    10     3    39 1   
    11     4    18 1   
    12     4    21 ar  
    13     4    26 ar  
    14     5    16 ar  
    15     5    27 ar  
    16     5    40 1   
    17     6     7 ar  
    18     6    31 ar  
    19     6    57 1   
    20     7     8 ar  
    21     7    41 1   
    22     8     9 ar  
    23     8    42 1   
    24     9    10 1   
    25     9    30 ar  
    26    10    11 1   
    27    10    29 2   
    28    11    12 2   
    29    11    43 1   
    30    12    13 1   
    31    12    44 1   
    32    13    28 2   
    33    13    56 1   
    34    14    15 ar  
    35    14    27 ar  
    36    14    56 1   
    37    15    46 1   
    38    17    18 1   
    39    18    19 1   
    40    19    20 1   
    41    19    47 1   
    42    20    48 1   
    43    20    49 1   
    44    20    50 1   
    45    21    22 ar  
    46    22    23 ar  
    47    22    51 1   
    48    23    24 ar  
    49    24    25 1   
    50    24    26 ar  
    51    25    52 1   
    52    25    53 1   
    53    27    54 1   
    54    30    31 ar  
    55    30    55 1   
    56    31    32 1   
    57    32    33 1   
    58    32    34 1   
    59    32    35 1   
    60    45    56 1   
@<TRIPOS>SUBSTRUCTURE
     1 G7W         1 TEMP              0 ****  ****    0 ROOT
