@<TRIPOS>MOLECULE
G7W
   57    60     1     0     0
SMALL
No Charge or Current Charge


@<TRIPOS>ATOM
      1 C13          3.9610     1.1910    -0.7380 ca         1 G7W      -0.067500
      2 C15          5.9330    -0.2440    -0.1920 cc         1 G7W       0.433500
      3 C20          8.8130    -2.4630    -2.4110 c3         1 G7W      -0.104100
      4 C21          8.1440     0.0730     0.0850 ca         1 G7W       0.156500
      5 C28          3.5960    -1.0190     0.1890 ca         1 G7W      -0.067500
      6 C02         -8.4550    -0.9210     0.8760 ca         1 G7W       0.253000
      7 C03         -7.2740    -1.2840     1.5350 ca         1 G7W      -0.175000
      8 C04         -6.0410    -0.7470     1.1350 ca         1 G7W      -0.013000
      9 C05         -5.9800     0.1640     0.0560 ca         1 G7W      -0.198600
     10 C06         -4.6740     0.7760    -0.4100 c          1 G7W       0.579900
     11 C07         -3.3700     0.1230    -0.0670 ce         1 G7W      -0.230200
     12 C08         -2.1320     0.6320    -0.3770 cf         1 G7W      -0.225200
     13 C09         -0.8380    -0.0330    -0.0460 c          1 G7W       0.601300
     14 C11          1.6790     0.3970    -0.3600 ca         1 G7W      -0.017000
     15 C12          2.5720     1.3920    -0.8000 ca         1 G7W      -0.152500
     16 C14          4.4880    -0.0050    -0.2120 ca         1 G7W      -0.123900
     17 N16          6.4790    -1.3680    -0.6700 nd         1 G7W      -0.517100
     18 N17          7.8440    -1.1400    -0.5110 na         1 G7W      -0.016100
     19 C18          8.8730    -2.1310    -0.9030 c3         1 G7W       0.111300
     20 C19          8.8050    -3.4040    -0.0310 c3         1 G7W      -0.104100
     21 N22          9.3010     0.6480     0.4690 nb         1 G7W      -0.233000
     22 C23          9.1750     1.8360     1.1060 ca         1 G7W       0.195900
     23 N24          8.0170     2.4690     1.4140 nb         1 G7W      -0.313000
     24 C25          6.8870     1.8650     1.0190 ca         1 G7W       0.455900
     25 N26          5.7440     2.4740     1.3950 nv         1 G7W      -1.068900
     26 C27          6.9340     0.6640     0.3180 ca         1 G7W      -0.380900
     27 C29          2.2060    -0.8180     0.1270 ca         1 G7W      -0.152500
     28 O30         -0.8040    -1.1070     0.5430 o          1 G7W      -0.572100
     29 O31         -4.6830     1.8140    -1.0600 o          1 G7W      -0.511100
     30 C32         -7.1810     0.5360    -0.5920 ca         1 G7W       0.017000
     31 C33         -8.4250    -0.0050    -0.1930 ca         1 G7W      -0.262300
     32 C34         -9.7270     0.3880    -0.8980 c3         1 G7W       0.371300
     33 F35         -9.5390     1.2740    -1.9040 f          1 G7W      -0.106000
     34 F36        -10.3430    -0.6860    -1.4420 f          1 G7W      -0.106000
     35 F37        -10.6050     0.9590    -0.0420 f          1 G7W      -0.106000
     36 H131         4.6310     1.9650    -1.1090 ha         1 G7W       0.126500
     37 H201         9.6340    -3.1340    -2.6920 hc         1 G7W       0.048533
     38 H202         7.8660    -2.9530    -2.6680 hc         1 G7W       0.048533
     39 H203         8.9010    -1.5490    -3.0090 hc         1 G7W       0.048533
     40 H281         3.9840    -1.9660     0.5600 ha         1 G7W       0.126500
     41 H031        -7.3180    -1.9840     2.3660 ha         1 G7W       0.147000
     42 H041        -5.1520    -1.0330     1.6910 ha         1 G7W       0.130000
     43 H1          -3.4220    -0.8350     0.4430 ha         1 G7W       0.209000
     44 H081        -2.0640     1.5860    -0.9000 ha         1 G7W       0.201000
     45 H101         0.0780     1.5490    -0.9160 hn         1 G7W       0.155000
     46 H121         2.1890     2.3280    -1.2010 ha         1 G7W       0.131000
     47 H181         9.8540    -1.6730    -0.7210 h1         1 G7W       0.082700
     48 H191         9.6210    -4.0910    -0.2850 hc         1 G7W       0.048533
     49 H193         8.8960    -3.1460     1.0310 hc         1 G7W       0.048533
     50 H192         7.8540    -3.9290    -0.1770 hc         1 G7W       0.048533
     51 H231        10.0970     2.3210     1.4220 h5         1 G7W       0.046100
     52 H262         5.8060     3.2020     2.1010 hn         1 G7W       0.501500
     53 H261         4.8780     1.9470     1.3560 hn         1 G7W       0.501500
     54 H291         1.5580    -1.6250     0.4550 ha         1 G7W       0.131000
     55 H321        -7.1380     1.2440    -1.4190 ha         1 G7W       0.156000
     56 N10          0.2860     0.6720    -0.4570 ns         1 G7W      -0.137000
     57 F01         -9.6240    -1.4590     1.2900 f          1 G7W      -0.151000
@<TRIPOS>BOND
     1     1    15 ar  
     2     1    16 ar  
     3     1    36 1   
     4     2    16 1   
     5     2    17 2   
     6     2    26 1   
     7     3    19 1   
     8     3    37 1   
     9     3    38 1   
    10     3    39 1   
    11     4    18 1   
    12     4    21 ar  
    13     4    26 ar  
    14     5    16 ar  
    15     5    27 ar  
    16     5    40 1   
    17     6     7 ar  
    18     6    31 ar  
    19     6    57 1   
    20     7     8 ar  
    21     7    41 1   
    22     8     9 ar  
    23     8    42 1   
    24     9    10 1   
    25     9    30 ar  
    26    10    11 1   
    27    10    29 2   
    28    11    12 2   
    29    11    43 1   
    30    12    13 1   
    31    12    44 1   
    32    13    28 2   
    33    13    56 1   
    34    14    15 ar  
    35    14    27 ar  
    36    14    56 1   
    37    15    46 1   
    38    17    18 1   
    39    18    19 1   
    40    19    20 1   
    41    19    47 1   
    42    20    48 1   
    43    20    49 1   
    44    20    50 1   
    45    21    22 ar  
    46    22    23 ar  
    47    22    51 1   
    48    23    24 ar  
    49    24    25 1   
    50    24    26 ar  
    51    25    52 1   
    52    25    53 1   
    53    27    54 1   
    54    30    31 ar  
    55    30    55 1   
    56    31    32 1   
    57    32    33 1   
    58    32    34 1   
    59    32    35 1   
    60    45    56 1   
@<TRIPOS>SUBSTRUCTURE
     1 G7W         1 TEMP              0 ****  ****    0 ROOT
