@<TRIPOS>MOLECULE
G7X
   70    73     1     0     0
SMALL
abcg2


@<TRIPOS>ATOM
      1 CAN         -2.6530    -0.6130    -1.5520 ca         1 G7X      -0.070000
      2 CAO         -3.6890    -0.5070    -2.4660 ca         1 G7X      -0.119000
      3 CAY         -4.9710    -0.9560    -2.1550 ca         1 G7X      -0.056300
      4 CAZ         -6.0850    -0.8590    -3.1550 c3         1 G7X      -0.050800
      5 CAX         -5.1790    -1.5260    -0.9000 ca         1 G7X      -0.119000
      6 CAW         -4.1400    -1.6560     0.0080 ca         1 G7X      -0.070000
      7 CAM         -2.8690    -1.1850    -0.3020 ca         1 G7X      -0.141600
      8 CAL         -1.7530    -1.4200     0.6640 c          1 G7X       0.620700
      9 OAV         -1.5650    -2.5470     1.0890 o          1 G7X      -0.585100
     10 NAK         -0.9850    -0.3490     1.0190 n          1 G7X      -0.405800
     11 CAU         -1.4730     1.0240     0.8720 c3         1 G7X       0.092000
     12 CBC         -2.6510     1.3870     1.7700 c3         1 G7X      -0.103400
     13 CBD         -3.1810     2.7720     1.4300 c3         1 G7X       0.150800
     14 NBE         -4.2840     3.1310     2.3080 n8         1 G7X      -0.994200
     15 CAJ          0.2180    -0.6060     1.8120 c3         1 G7X       0.072400
     16 CAB          0.1290    -0.1430     3.2740 c3         1 G7X      -0.066700
     17 CAA         -0.9890    -0.8870     4.0000 c3         1 G7X      -0.092100
     18 CAC          1.4520    -0.3880     3.9960 c3         1 G7X      -0.092100
     19 CAI          1.4200     0.0030     1.0990 cc         1 G7X       0.518900
     20 NAH          1.5570     1.2780     1.1720 nd         1 G7X      -0.652100
     21 CAG          2.5770     1.8890     0.4990 ca         1 G7X       0.202400
     22 CAF          2.7120     3.2800     0.6000 ca         1 G7X      -0.106000
     23 CAE          3.7310     3.9000    -0.0840 ca         1 G7X       0.153000
     24 CLD          3.9070     5.6150     0.0330 cl         1 G7X      -0.192000
     25 CAP          4.6350     3.1840    -0.8770 ca         1 G7X      -0.132000
     26 CAQ          4.4980     1.8190    -0.9750 ca         1 G7X      -0.028000
     27 CAR          3.4730     1.1630    -0.2880 ca         1 G7X      -0.208600
     28 CAS          3.3260    -0.2800    -0.3680 c          1 G7X       0.572600
     29 OBA          4.0440    -1.0000    -1.0360 o          1 G7X      -0.524000
     30 NAT          2.2880    -0.8080     0.4010 n          1 G7X      -0.328300
     31 CBB          2.1940    -2.2650     0.4330 c3         1 G7X       0.132300
     32 CBG          1.2380    -2.8520    -0.5730 ca         1 G7X      -0.098300
     33 CBH          0.8910    -4.1940    -0.4420 ca         1 G7X      -0.093500
     34 CBK          0.0440    -4.7970    -1.3550 ca         1 G7X      -0.103500
     35 CBJ         -0.4740    -4.0640    -2.4160 ca         1 G7X      -0.100000
     36 CBI         -0.1320    -2.7280    -2.5510 ca         1 G7X      -0.103500
     37 CBF          0.7210    -2.1230    -1.6350 ca         1 G7X      -0.093500
     38 HAN         -1.6660    -0.2630    -1.8270 ha         1 G7X       0.121000
     39 HAO         -3.4950    -0.0670    -3.4370 ha         1 G7X       0.114500
     40 HAZ1        -6.0640    -1.7090    -3.8400 hc         1 G7X       0.044367
     41 HAZ2        -7.0600    -0.8570    -2.6700 hc         1 G7X       0.044367
     42 HAZ3        -6.0040     0.0440    -3.7590 hc         1 G7X       0.044367
     43 HAX         -6.1680    -1.8780    -0.6300 ha         1 G7X       0.114500
     44 HAW         -4.3290    -2.1130     0.9720 ha         1 G7X       0.121000
     45 HAU1        -0.6390     1.6890     1.0810 h1         1 G7X       0.065200
     46 HAU2        -1.7420     1.2090    -0.1680 h1         1 G7X       0.065200
     47 HAJ          0.3130    -1.6880     1.8400 h1         1 G7X       0.100700
     48 HBC1        -3.4610     0.6610     1.6640 hc         1 G7X       0.054700
     49 HBC2        -2.3420     1.3680     2.8190 hc         1 G7X       0.054700
     50 HBD1        -2.3490     3.4910     1.4540 h1         1 G7X       0.028200
     51 HBD2        -3.5490     2.7680     0.4000 h1         1 G7X       0.028200
     52 HBE1        -3.9310     3.2580     3.2490 hn         1 G7X       0.392500
     53 HBE2        -4.6530     4.0320     2.0350 hn         1 G7X       0.392500
     54 HAB         -0.0870     0.9290     3.2940 hc         1 G7X       0.067700
     55 HAA1        -0.7770    -1.9570     4.0500 hc         1 G7X       0.038867
     56 HAA2        -1.0790    -0.5190     5.0230 hc         1 G7X       0.038867
     57 HAA3        -1.9590    -0.7640     3.5220 hc         1 G7X       0.038867
     58 HAC1         2.2740     0.1980     3.5830 hc         1 G7X       0.038867
     59 HAC2         1.3600    -0.1190     5.0480 hc         1 G7X       0.038867
     60 HAC3         1.7350    -1.4430     3.9550 hc         1 G7X       0.038867
     61 HAF          2.0130     3.8390     1.2070 ha         1 G7X       0.145000
     62 HAP          5.4280     3.6990    -1.4010 ha         1 G7X       0.136000
     63 HAQ          5.1920     1.2520    -1.5820 ha         1 G7X       0.142000
     64 HBB1         3.1950    -2.6510     0.2500 h1         1 G7X       0.075700
     65 HBB2         1.9390    -2.5850     1.4410 h1         1 G7X       0.075700
     66 HBH          1.2860    -4.7710     0.3870 ha         1 G7X       0.110000
     67 HBF          0.9680    -1.0770    -1.7640 ha         1 G7X       0.110000
     68 HBK         -0.2190    -5.8410    -1.2360 ha         1 G7X       0.111000
     69 HBJ         -1.1390    -4.5320    -3.1300 ha         1 G7X       0.112000
     70 HBI         -0.5330    -2.1470    -3.3720 ha         1 G7X       0.111000
@<TRIPOS>BOND
     1     1     2 ar  
     2     1     7 ar  
     3     1    38 1   
     4     2     3 ar  
     5     2    39 1   
     6     3     4 1   
     7     3     5 ar  
     8     4    40 1   
     9     4    41 1   
    10     4    42 1   
    11     5     6 ar  
    12     5    43 1   
    13     6     7 ar  
    14     6    44 1   
    15     7     8 1   
    16     8     9 2   
    17     8    10 1   
    18    10    11 1   
    19    10    15 1   
    20    11    12 1   
    21    11    45 1   
    22    11    46 1   
    23    12    13 1   
    24    12    48 1   
    25    12    49 1   
    26    13    14 1   
    27    13    50 1   
    28    13    51 1   
    29    14    52 1   
    30    14    53 1   
    31    15    16 1   
    32    15    19 1   
    33    15    47 1   
    34    16    17 1   
    35    16    18 1   
    36    16    54 1   
    37    17    55 1   
    38    17    56 1   
    39    17    57 1   
    40    18    58 1   
    41    18    59 1   
    42    18    60 1   
    43    19    20 2   
    44    19    30 1   
    45    20    21 1   
    46    21    22 ar  
    47    21    27 ar  
    48    22    23 ar  
    49    22    61 1   
    50    23    24 1   
    51    23    25 ar  
    52    25    26 ar  
    53    25    62 1   
    54    26    27 ar  
    55    26    63 1   
    56    27    28 1   
    57    28    29 2   
    58    28    30 1   
    59    30    31 1   
    60    31    32 1   
    61    31    64 1   
    62    31    65 1   
    63    32    33 ar  
    64    32    37 ar  
    65    33    34 ar  
    66    33    66 1   
    67    34    35 ar  
    68    34    68 1   
    69    35    36 ar  
    70    35    69 1   
    71    36    37 ar  
    72    36    70 1   
    73    37    67 1   
@<TRIPOS>SUBSTRUCTURE
     1 G7X         1 TEMP              0 ****  ****    0 ROOT
