@<TRIPOS>MOLECULE
G7X
   70    73     1     0     0
SMALL
No Charge or Current Charge


@<TRIPOS>ATOM
      1 CAN         -2.7180    -1.0350    -1.4050 ca         1 G7X      -0.070000
      2 CAO         -3.7360    -1.0730    -2.3720 ca         1 G7X      -0.119000
      3 CAY         -4.9850    -1.6420    -2.0680 ca         1 G7X      -0.056300
      4 CAZ         -6.0830    -1.6890    -3.1180 c3         1 G7X      -0.050800
      5 CAX         -5.1980    -2.1890    -0.7900 ca         1 G7X      -0.119000
      6 CAW         -4.1790    -2.1530     0.1770 ca         1 G7X      -0.070000
      7 CAM         -2.9360    -1.5520    -0.1100 ca         1 G7X      -0.141600
      8 CAL         -1.8450    -1.5740     0.9370 c          1 G7X       0.620700
      9 OAV         -1.6530    -2.6000     1.5780 o          1 G7X      -0.585100
     10 NAK         -1.0230    -0.4280     1.1310 n          1 G7X      -0.405800
     11 CAU         -1.5270     0.9390     0.7840 c3         1 G7X       0.092000
     12 CBC         -2.5450     1.5190     1.7880 c3         1 G7X      -0.103400
     13 CBD         -3.1180     2.8710     1.3230 c3         1 G7X       0.150800
     14 NBE         -4.0930     3.4030     2.2920 n8         1 G7X      -0.994200
     15 CAJ          0.2720    -0.5540     1.9050 c3         1 G7X       0.072400
     16 CAB          0.1780    -0.0910     3.4040 c3         1 G7X      -0.066700
     17 CAA         -0.9960    -0.7540     4.1710 c3         1 G7X      -0.092100
     18 CAC          1.4970    -0.3550     4.1780 c3         1 G7X      -0.092100
     19 CAI          1.4830     0.0400     1.1410 cc         1 G7X       0.518900
     20 NAH          1.6860     1.3520     1.3320 nd         1 G7X      -0.652100
     21 CAG          2.7720     1.9280     0.6800 ca         1 G7X       0.202400
     22 CAF          2.9830     3.3040     0.8750 ca         1 G7X      -0.106000
     23 CAE          4.0560     3.9600     0.2560 ca         1 G7X       0.153000
     24 ClD          4.3020     5.6820     0.5140 cl         1 G7X      -0.192000
     25 CAP          4.9330     3.2440    -0.5700 ca         1 G7X      -0.132000
     26 CAQ          4.7300     1.8690    -0.7710 ca         1 G7X      -0.028000
     27 CAR          3.6460     1.2150    -0.1420 ca         1 G7X      -0.208600
     28 CAS          3.4080    -0.2290    -0.3390 c          1 G7X       0.572600
     29 OBA          4.1470    -0.8930    -1.0550 o          1 G7X      -0.524000
     30 NAT          2.3030    -0.7740     0.3280 n          1 G7X      -0.328300
     31 CBB          2.0520    -2.2340     0.1200 c3         1 G7X       0.132300
     32 CBG          1.0140    -2.5700    -0.9500 ca         1 G7X      -0.098300
     33 CBH          0.1520    -3.6680    -0.7650 ca         1 G7X      -0.093500
     34 CBK         -0.7810    -4.0190    -1.7560 ca         1 G7X      -0.103500
     35 CBJ         -0.8480    -3.2850    -2.9500 ca         1 G7X      -0.100000
     36 CBI          0.0160    -2.1960    -3.1500 ca         1 G7X      -0.103500
     37 CBF          0.9410    -1.8380    -2.1550 ca         1 G7X      -0.093500
     38 HAN         -1.7480    -0.6230    -1.6740 ha         1 G7X       0.121000
     39 HAO         -3.5470    -0.6680    -3.3640 ha         1 G7X       0.114500
     40 HAZ1        -6.0130    -2.6050    -3.7160 hc         1 G7X       0.044367
     41 HAZ2        -7.0780    -1.6640    -2.6580 hc         1 G7X       0.044367
     42 HAZ3        -6.0170    -0.8350    -3.8040 hc         1 G7X       0.044367
     43 HAX         -6.1530    -2.6480    -0.5460 ha         1 G7X       0.114500
     44 HAW         -4.3590    -2.5880     1.1590 ha         1 G7X       0.121000
     45 HAU1        -0.6900     1.6410     0.7170 h1         1 G7X       0.065200
     46 HAU2        -1.9840     0.9480    -0.2070 h1         1 G7X       0.065200
     47 HAJ          0.4660    -1.6210     2.0090 h1         1 G7X       0.100700
     48 HBC1        -3.3680     0.8060     1.9170 hc         1 G7X       0.054700
     49 HBC2        -2.0720     1.6530     2.7660 hc         1 G7X       0.054700
     50 HBD1        -2.3040     3.5990     1.2050 h1         1 G7X       0.028200
     51 HBD2        -3.6190     2.7460     0.3530 h1         1 G7X       0.028200
     52 HBE1        -3.6110     3.6020     3.1760 hn         1 G7X       0.392500
     53 HBE2        -4.4070     4.3290     1.9760 hn         1 G7X       0.392500
     54 HAB          0.0090     0.9920     3.4210 hc         1 G7X       0.067700
     55 HAA1        -0.8630    -1.8410     4.2220 hc         1 G7X       0.038867
     56 HAA2        -1.0520    -0.3710     5.1970 hc         1 G7X       0.038867
     57 HAA3        -1.9610    -0.5530     3.6940 hc         1 G7X       0.038867
     58 HAC1         2.3400     0.1950     3.7450 hc         1 G7X       0.038867
     59 HAC2         1.4030    -0.0350     5.2230 hc         1 G7X       0.038867
     60 HAC3         1.7460    -1.4240     4.1720 hc         1 G7X       0.038867
     61 HAF          2.3090     3.8660     1.5140 ha         1 G7X       0.145000
     62 HAP          5.7650     3.7510    -1.0510 ha         1 G7X       0.136000
     63 HAQ          5.4150     1.3180    -1.4140 ha         1 G7X       0.142000
     64 HBB1         2.9850    -2.7370    -0.1640 h1         1 G7X       0.075700
     65 HBB2         1.7870    -2.7150     1.0680 h1         1 G7X       0.075700
     66 HBH          0.2010    -4.2540     0.1510 ha         1 G7X       0.110000
     67 HBF          1.6070    -0.9980    -2.3330 ha         1 G7X       0.110000
     68 HBK         -1.4490    -4.8630    -1.5990 ha         1 G7X       0.111000
     69 HBJ         -1.5690    -3.5570    -3.7180 ha         1 G7X       0.112000
     70 HBI         -0.0330    -1.6280    -4.0760 ha         1 G7X       0.111000
@<TRIPOS>BOND
     1     1     2 ar  
     2     1     7 ar  
     3     1    38 1   
     4     2     3 ar  
     5     2    39 1   
     6     3     4 1   
     7     3     5 ar  
     8     4    40 1   
     9     4    41 1   
    10     4    42 1   
    11     5     6 ar  
    12     5    43 1   
    13     6     7 ar  
    14     6    44 1   
    15     7     8 1   
    16     8     9 2   
    17     8    10 1   
    18    10    11 1   
    19    10    15 1   
    20    11    12 1   
    21    11    45 1   
    22    11    46 1   
    23    12    13 1   
    24    12    48 1   
    25    12    49 1   
    26    13    14 1   
    27    13    50 1   
    28    13    51 1   
    29    14    52 1   
    30    14    53 1   
    31    15    16 1   
    32    15    19 1   
    33    15    47 1   
    34    16    17 1   
    35    16    18 1   
    36    16    54 1   
    37    17    55 1   
    38    17    56 1   
    39    17    57 1   
    40    18    58 1   
    41    18    59 1   
    42    18    60 1   
    43    19    20 2   
    44    19    30 1   
    45    20    21 1   
    46    21    22 ar  
    47    21    27 ar  
    48    22    23 ar  
    49    22    61 1   
    50    23    24 1   
    51    23    25 ar  
    52    25    26 ar  
    53    25    62 1   
    54    26    27 ar  
    55    26    63 1   
    56    27    28 1   
    57    28    29 2   
    58    28    30 1   
    59    30    31 1   
    60    31    32 1   
    61    31    64 1   
    62    31    65 1   
    63    32    33 ar  
    64    32    37 ar  
    65    33    34 ar  
    66    33    66 1   
    67    34    35 ar  
    68    34    68 1   
    69    35    36 ar  
    70    35    69 1   
    71    36    37 ar  
    72    36    70 1   
    73    37    67 1   
@<TRIPOS>SUBSTRUCTURE
     1 G7X         1 TEMP              0 ****  ****    0 ROOT
