@<TRIPOS>MOLECULE
G7Z
   25    25     1     0     0
SMALL
abcg2


@<TRIPOS>ATOM
      1 C1           4.8130    -0.2060     0.4080 c3         1 G7Z       0.095300
      2 N1           3.4020    -0.2520     0.7150 ns         1 G7Z      -0.506900
      3 C2           2.4750     0.2920    -0.0810 c          1 G7Z       0.600100
      4 O1           2.7540     0.8440    -1.1380 o          1 G7Z      -0.604100
      5 C3           1.0500     0.2080     0.4240 c3         1 G7Z      -0.181400
      6 C4           0.0670     0.0210    -0.7260 c3         1 G7Z       0.115000
      7 N2          -1.3040     0.0040    -0.2590 n          1 G7Z      -0.391400
      8 C5          -1.9380    -1.1380     0.1820 c          1 G7Z       0.565000
      9 O2          -1.4220    -2.2300     0.2080 o          1 G7Z      -0.499500
     10 C6          -3.3340    -0.7710     0.6090 c5         1 G7Z      -0.169400
     11 C7          -3.4470     0.7250     0.3450 c5         1 G7Z      -0.169400
     12 C8          -2.0920     1.1330    -0.1720 c          1 G7Z       0.565000
     13 O3          -1.7220     2.2410    -0.4750 o          1 G7Z      -0.499500
     14 H1           5.0440    -0.7460    -0.5100 h1         1 G7Z       0.040700
     15 H2           5.1670     0.8200     0.3000 h1         1 G7Z       0.040700
     16 H3           5.3570    -0.6700     1.2250 h1         1 G7Z       0.040700
     17 H4           3.1140    -0.7050     1.5660 hn         1 G7Z       0.315500
     18 H5           0.9380    -0.5980     1.1510 hc         1 G7Z       0.065700
     19 H6           0.1680     0.8230    -1.4530 h1         1 G7Z       0.081700
     20 H7          -4.0540    -1.3630     0.0440 hc         1 G7Z       0.086700
     21 H8          -3.4630    -1.0270     1.6610 hc         1 G7Z       0.086700
     22 H9          -4.1990     0.9670    -0.4070 hc         1 G7Z       0.086700
     23 H10         -3.6860     1.3030     1.2380 hc         1 G7Z       0.086700
     24 H11          0.8270     1.1420     0.9480 hc         1 G7Z       0.065700
     25 H12          0.2560    -0.9190    -1.2430 h1         1 G7Z       0.081700
@<TRIPOS>BOND
     1     1     2 1   
     2     1    14 1   
     3     1    15 1   
     4     1    16 1   
     5     2     3 1   
     6     2    17 1   
     7     3     4 2   
     8     3     5 1   
     9     5     6 1   
    10     5    18 1   
    11     5    24 1   
    12     6     7 1   
    13     6    19 1   
    14     6    25 1   
    15     7     8 1   
    16     7    12 1   
    17     8     9 2   
    18     8    10 1   
    19    10    11 1   
    20    10    20 1   
    21    10    21 1   
    22    11    12 1   
    23    11    22 1   
    24    11    23 1   
    25    12    13 2   
@<TRIPOS>SUBSTRUCTURE
     1 G7Z         1 TEMP              0 ****  ****    0 ROOT
