@<TRIPOS>MOLECULE
G7Z
   25    25     1     0     0
SMALL
No Charge or Current Charge


@<TRIPOS>ATOM
      1 C1           4.7480    -0.4950     0.2110 c3         1 G7Z       0.095300
      2 N1           3.3260    -0.3950     0.5470 ns         1 G7Z      -0.506900
      3 C2           2.5010     0.6240     0.1300 c          1 G7Z       0.600100
      4 O1           2.9060     1.5510    -0.5550 o          1 G7Z      -0.604100
      5 C3           1.0560     0.5310     0.6120 c3         1 G7Z      -0.181400
      6 C4           0.1190     0.1570    -0.5520 c3         1 G7Z       0.115000
      7 N2          -1.2920     0.0520    -0.1260 n          1 G7Z      -0.391400
      8 C5          -1.8370    -1.1520     0.3030 c          1 G7Z       0.565000
      9 O2          -1.3650    -2.2600     0.0970 o          1 G7Z      -0.499500
     10 C6          -3.2210    -0.7520     0.8320 c5         1 G7Z      -0.169400
     11 C7          -3.5490     0.5080    -0.0250 c5         1 G7Z      -0.169400
     12 C8          -2.1620     1.1310    -0.2400 c          1 G7Z       0.565000
     13 O3          -1.8310     2.3050    -0.2990 o          1 G7Z      -0.499500
     14 H1           4.8680    -0.5450    -0.8790 h1         1 G7Z       0.040700
     15 H2           5.2820     0.3820     0.5970 h1         1 G7Z       0.040700
     16 H3           5.1680    -1.4030     0.6630 h1         1 G7Z       0.040700
     17 H4           2.9100    -1.1180     1.1230 hn         1 G7Z       0.315500
     18 H5           0.9630    -0.2310     1.3950 hc         1 G7Z       0.065700
     19 H6           0.2020     0.9160    -1.3430 h1         1 G7Z       0.081700
     20 H7          -3.9380    -1.5790     0.7770 hc         1 G7Z       0.086700
     21 H8          -3.0990    -0.4380     1.8750 hc         1 G7Z       0.086700
     22 H9          -3.9180     0.1790    -1.0030 hc         1 G7Z       0.086700
     23 H10         -4.2570     1.2220     0.4090 hc         1 G7Z       0.086700
     24 H11          0.7500     1.5070     1.0040 hc         1 G7Z       0.065700
     25 H12          0.4420    -0.7980    -0.9890 h1         1 G7Z       0.081700
@<TRIPOS>BOND
     1     1     2 1   
     2     1    14 1   
     3     1    15 1   
     4     1    16 1   
     5     2     3 1   
     6     2    17 1   
     7     3     4 2   
     8     3     5 1   
     9     5     6 1   
    10     5    18 1   
    11     5    24 1   
    12     6     7 1   
    13     6    19 1   
    14     6    25 1   
    15     7     8 1   
    16     7    12 1   
    17     8     9 2   
    18     8    10 1   
    19    10    11 1   
    20    10    20 1   
    21    10    21 1   
    22    11    12 1   
    23    11    22 1   
    24    11    23 1   
    25    12    13 2   
@<TRIPOS>SUBSTRUCTURE
     1 G7Z         1 TEMP              0 ****  ****    0 ROOT
