@<TRIPOS>MOLECULE
G80
   76    79     1     0     0
SMALL
abcg2


@<TRIPOS>ATOM
      1 O1           5.9480    -6.3720     7.1710 o          1 G80      -0.517100
      2 O2          10.0920    -2.1760     4.3890 oh         1 G80      -0.654000
      3 C1           8.6650    -4.0570     7.4260 c5         1 G80      -0.074400
      4 C2           8.0020    -5.3520     7.8720 c5         1 G80      -0.197400
      5 C3           6.7440    -5.4750     7.0400 c          1 G80       0.579100
      6 C4           6.7100    -4.3250     6.0330 c5         1 G80      -0.162700
      7 C5           5.3340    -3.9090     5.4530 c6         1 G80      -0.004000
      8 C6           4.5130    -3.3050     6.6250 c6         1 G80      -0.055700
      9 C7           5.2770    -2.1840     7.3300 c6         1 G80      -0.078400
     10 C8           6.6390    -2.6330     7.8360 c6         1 G80      -0.071400
     11 C9           7.5490    -3.2350     6.7480 c5         1 G80      -0.038000
     12 C10          8.1620    -2.1370     5.8350 c3         1 G80      -0.040700
     13 C11          8.8020    -2.7240     4.5440 c3         1 G80       0.191300
     14 C12          7.9810    -2.5280     3.2370 c3         1 G80      -0.038800
     15 C13          6.6190    -3.2660     3.2670 c3         1 G80      -0.085400
     16 C14          5.5690    -2.8710     4.3180 c3         1 G80       0.183300
     17 C15          4.6280    -5.1410     4.8610 c3         1 G80      -0.087100
     18 C16          3.0860    -2.8600     6.3110 c3         1 G80      -0.082100
     19 C17          9.1400    -1.2510     6.6150 c3         1 G80      -0.074100
     20 C18          8.7530    -3.1820     2.0850 c3         1 G80      -0.097100
     21 C19          7.7530    -1.0600     2.9800 c2         1 G80      -0.207200
     22 C20          8.1870    -0.3530     1.9440 c2         1 G80      -0.311000
     23 O3           4.3190    -2.6960     3.6170 os         1 G80      -0.455100
     24 C21          3.8760    -1.4870     3.3240 c          1 G80       0.613100
     25 O4           4.3970    -0.4520     3.6540 o          1 G80      -0.471000
     26 C22          2.6060    -1.5730     2.5180 c3         1 G80      -0.024400
     27 S1           2.0360     0.0930     2.1160 ss         1 G80      -0.381000
     28 C23          0.5760    -0.3250     1.0930 c6         1 G80       0.073300
     29 C24          0.9560    -0.8830    -0.2760 c6         1 G80      -0.066400
     30 C25          1.5830     0.1790    -1.1660 c6         1 G80       0.157800
     31 C27          0.4120     1.9410    -0.0110 c6         1 G80       0.157800
     32 C26         -0.2610     0.9420     0.9200 c6         1 G80      -0.066400
     33 N1           0.6830     1.3130    -1.2920 n7         1 G80      -0.864400
     34 H11A         9.1120    -3.5120     8.2580 hc         1 G80       0.053700
     35 H12          9.4660    -4.2660     6.7140 hc         1 G80       0.053700
     36 H21          7.7190    -5.3410     8.9280 hc         1 G80       0.073200
     37 H22          8.6290    -6.2350     7.7310 hc         1 G80       0.073200
     38 H4           7.3190    -4.7500     5.2210 hc         1 G80       0.069700
     39 H6           4.4140    -4.1210     7.3520 hc         1 G80       0.053700
     40 H71          4.6840    -1.8410     8.1830 hc         1 G80       0.046700
     41 H72          5.3680    -1.3080     6.6780 hc         1 G80       0.046700
     42 H81          7.1380    -1.8100     8.3510 hc         1 G80       0.043700
     43 H82          6.4730    -3.3880     8.6130 hc         1 G80       0.043700
     44 H10          7.3530    -1.4620     5.5590 hc         1 G80       0.061700
     45 H11          8.9030    -3.8120     4.6650 h1         1 G80       0.020700
     46 H131         6.8130    -4.3420     3.3070 hc         1 G80       0.053200
     47 H132         6.1760    -3.1010     2.2830 hc         1 G80       0.053200
     48 H14          5.8220    -1.9090     4.7510 h1         1 G80       0.077700
     49 H151         4.2550    -5.7910     5.6460 hc         1 G80       0.045033
     50 H152         3.7800    -4.8640     4.2390 hc         1 G80       0.045033
     51 H153         5.3120    -5.7310     4.2480 hc         1 G80       0.045033
     52 H161         2.5340    -2.7480     7.2460 hc         1 G80       0.035033
     53 H162         3.0460    -1.8910     5.8140 hc         1 G80       0.035033
     54 H163         2.5440    -3.5840     5.7030 hc         1 G80       0.035033
     55 H171         9.4330    -0.3850     6.0240 hc         1 G80       0.038700
     56 H172         8.6680    -0.8700     7.5190 hc         1 G80       0.038700
     57 H173        10.0480    -1.7740     6.9120 hc         1 G80       0.038700
     58 H181         8.1560    -3.1890     1.1730 hc         1 G80       0.038033
     59 H182         9.6850    -2.6710     1.8440 hc         1 G80       0.038033
     60 H183         8.9920    -4.2210     2.3250 hc         1 G80       0.038033
     61 H19          7.1520    -0.5310     3.7130 ha         1 G80       0.181000
     62 H201         7.9470     0.6990     1.8560 ha         1 G80       0.161000
     63 H202         8.7880    -0.7730     1.1470 ha         1 G80       0.161000
     64 H221         1.8490    -2.1180     3.0870 h1         1 G80       0.085200
     65 H222         2.8020    -2.1520     1.6120 h1         1 G80       0.085200
     66 H23         -0.0010    -1.0650     1.6540 h1         1 G80       0.063700
     67 H241         0.0420    -1.2550    -0.7520 hc         1 G80       0.053200
     68 H242         1.6280    -1.7400    -0.1860 hc         1 G80       0.053200
     69 H251         2.5660     0.4580    -0.7550 h1         1 G80       0.038200
     70 H252         1.7640    -0.2400    -2.1580 h1         1 G80       0.038200
     71 H271        -0.2520     2.7930    -0.1690 h1         1 G80       0.038200
     72 H272         1.3210     2.3390     0.4700 h1         1 G80       0.038200
     73 H261        -0.4690     1.4030     1.8870 hc         1 G80       0.053200
     74 H262        -1.2230     0.6500     0.4890 hc         1 G80       0.053200
     75 HN1          1.0890     1.9960    -1.9190 hn         1 G80       0.412000
     76 HO2         10.5790    -2.7160     3.7610 ho         1 G80       0.441000
@<TRIPOS>BOND
     1     1     5 2   
     2     2    13 1   
     3     2    76 1   
     4     3     4 1   
     5     3    11 1   
     6     3    34 1   
     7     3    35 1   
     8     4     5 1   
     9     4    36 1   
    10     4    37 1   
    11     5     6 1   
    12     6     7 1   
    13     6    11 1   
    14     6    38 1   
    15     7     8 1   
    16     7    16 1   
    17     7    17 1   
    18     8     9 1   
    19     8    18 1   
    20     8    39 1   
    21     9    10 1   
    22     9    40 1   
    23     9    41 1   
    24    10    11 1   
    25    10    42 1   
    26    10    43 1   
    27    11    12 1   
    28    12    13 1   
    29    12    19 1   
    30    12    44 1   
    31    13    14 1   
    32    13    45 1   
    33    14    15 1   
    34    14    20 1   
    35    14    21 1   
    36    15    16 1   
    37    15    46 1   
    38    15    47 1   
    39    16    23 1   
    40    16    48 1   
    41    17    49 1   
    42    17    50 1   
    43    17    51 1   
    44    18    52 1   
    45    18    53 1   
    46    18    54 1   
    47    19    55 1   
    48    19    56 1   
    49    19    57 1   
    50    20    58 1   
    51    20    59 1   
    52    20    60 1   
    53    21    22 2   
    54    21    61 1   
    55    22    62 1   
    56    22    63 1   
    57    23    24 1   
    58    24    25 2   
    59    24    26 1   
    60    26    27 1   
    61    26    64 1   
    62    26    65 1   
    63    27    28 1   
    64    28    29 1   
    65    28    32 1   
    66    28    66 1   
    67    29    30 1   
    68    29    67 1   
    69    29    68 1   
    70    30    33 1   
    71    30    69 1   
    72    30    70 1   
    73    31    32 1   
    74    31    33 1   
    75    31    71 1   
    76    31    72 1   
    77    32    73 1   
    78    32    74 1   
    79    33    75 1   
@<TRIPOS>SUBSTRUCTURE
     1 G80         1 TEMP              0 ****  ****    0 ROOT
