@<TRIPOS>MOLECULE
G80
   76    79     1     0     0
SMALL
No Charge or Current Charge


@<TRIPOS>ATOM
      1 O1           5.7510    -6.0090     7.8570 o          1 G80      -0.517100
      2 O2          10.2530    -2.2700     4.5210 oh         1 G80      -0.654000
      3 C1           8.7440    -4.4030     7.5450 c5         1 G80      -0.074400
      4 C2           8.1600    -5.8510     7.4450 c5         1 G80      -0.197400
      5 C3           6.6840    -5.6440     7.1530 c          1 G80       0.579100
      6 C4           6.7200    -4.4530     6.1670 c5         1 G80      -0.162700
      7 C5           5.3590    -3.9010     5.5910 c6         1 G80      -0.004000
      8 C6           4.5680    -3.1840     6.8080 c6         1 G80      -0.055700
      9 C7           5.4450    -2.1600     7.6310 c6         1 G80      -0.078400
     10 C8           6.7650    -2.8140     8.1190 c6         1 G80      -0.071400
     11 C9           7.6350    -3.4290     6.9540 c5         1 G80      -0.038000
     12 C10          8.3090    -2.2810     6.0800 c3         1 G80      -0.040700
     13 C11          8.9260    -2.7900     4.7020 c3         1 G80       0.191300
     14 C12          8.1010    -2.4910     3.3740 c3         1 G80      -0.038800
     15 C13          6.6870    -3.1800     3.2890 c3         1 G80      -0.085400
     16 C14          5.5880    -2.8390     4.3720 c3         1 G80       0.183300
     17 C15          4.5230    -5.0980     5.0100 c3         1 G80      -0.087100
     18 C16          3.1840    -2.5090     6.4680 c3         1 G80      -0.082100
     19 C17          9.3080    -1.4000     6.9070 c3         1 G80      -0.074100
     20 C18          8.9100    -3.0670     2.1640 c3         1 G80      -0.097100
     21 C19          7.9510    -0.9790     3.1640 c2         1 G80      -0.207200
     22 C20          7.5270    -0.3720     2.0420 c2         1 G80      -0.311000
     23 O3           4.3510    -2.6270     3.6120 os         1 G80      -0.455100
     24 C21          4.0430    -1.3780     3.1350 c          1 G80       0.613100
     25 O4           4.6490    -0.3540     3.4200 o          1 G80      -0.471000
     26 C22          2.7270    -1.4180     2.3390 c3         1 G80      -0.024400
     27 S1           2.1700     0.2340     1.6730 ss         1 G80      -0.381000
     28 C23          0.5910    -0.2560     0.8330 c6         1 G80       0.073300
     29 C24          0.8290    -0.9200    -0.5490 c6         1 G80      -0.066400
     30 C25          1.2890     0.1160    -1.6040 c6         1 G80       0.157800
     31 C27          0.1120     1.9310    -0.4130 c6         1 G80       0.157800
     32 C26         -0.3780     0.9430     0.6760 c6         1 G80      -0.066400
     33 N1           0.3240     1.2390    -1.7090 n7         1 G80      -0.864400
     34 H11A         8.9890    -4.1430     8.5820 hc         1 G80       0.053700
     35 H12          9.6900    -4.3460     6.9950 hc         1 G80       0.053700
     36 H21          8.3130    -6.4550     8.3460 hc         1 G80       0.073200
     37 H22          8.6210    -6.3300     6.5740 hc         1 G80       0.073200
     38 H4           7.2890    -4.8400     5.3210 hc         1 G80       0.069700
     39 H6           4.2850    -3.9750     7.5130 hc         1 G80       0.053700
     40 H71          4.8790    -1.8090     8.5050 hc         1 G80       0.046700
     41 H72          5.6550    -1.2640     7.0330 hc         1 G80       0.046700
     42 H81          7.3320    -2.0940     8.7180 hc         1 G80       0.043700
     43 H82          6.5030    -3.5980     8.8420 hc         1 G80       0.043700
     44 H10          7.5420    -1.5530     5.8280 hc         1 G80       0.061700
     45 H11          9.0380    -3.8770     4.7680 h1         1 G80       0.020700
     46 H131         6.8180    -4.2670     3.2570 hc         1 G80       0.053200
     47 H132         6.2700    -2.9390     2.3040 hc         1 G80       0.053200
     48 H14          5.8550    -1.8890     4.8360 h1         1 G80       0.077700
     49 H151         4.2600    -5.8310     5.7790 hc         1 G80       0.045033
     50 H152         3.5740    -4.7760     4.5680 hc         1 G80       0.045033
     51 H153         5.0770    -5.6310     4.2290 hc         1 G80       0.045033
     52 H161         2.6520    -2.2260     7.3840 hc         1 G80       0.035033
     53 H162         3.3150    -1.5970     5.8760 hc         1 G80       0.035033
     54 H163         2.5280    -3.1860     5.9100 hc         1 G80       0.035033
     55 H171         9.6820    -0.5620     6.3060 hc         1 G80       0.038700
     56 H172         8.8370    -0.9400     7.7790 hc         1 G80       0.038700
     57 H173        10.1700    -1.9820     7.2540 hc         1 G80       0.038700
     58 H181         8.3350    -3.0170     1.2310 hc         1 G80       0.038033
     59 H182         9.8410    -2.5150     1.9900 hc         1 G80       0.038033
     60 H183         9.1670    -4.1200     2.3310 hc         1 G80       0.038033
     61 H19          8.2260    -0.3580     4.0190 ha         1 G80       0.181000
     62 H201         7.4490     0.7140     1.9800 ha         1 G80       0.161000
     63 H202         7.2320    -0.9290     1.1520 ha         1 G80       0.161000
     64 H221         1.9550    -1.8280     3.0000 h1         1 G80       0.085200
     65 H222         2.8720    -2.1200     1.5090 h1         1 G80       0.085200
     66 H23          0.1110    -0.9920     1.4940 h1         1 G80       0.063700
     67 H241        -0.1010    -1.3930    -0.8910 hc         1 G80       0.053200
     68 H242         1.5710    -1.7240    -0.4660 hc         1 G80       0.053200
     69 H251         2.2800     0.5080    -1.3290 h1         1 G80       0.038200
     70 H252         1.3880    -0.3760    -2.5830 h1         1 G80       0.038200
     71 H271        -0.6300     2.7330    -0.5420 h1         1 G80       0.038200
     72 H272         1.0530     2.4000    -0.0890 h1         1 G80       0.038200
     73 H261        -0.4900     1.4670     1.6340 hc         1 G80       0.053200
     74 H262        -1.3760     0.5740     0.4060 hc         1 G80       0.053200
     75 HN1          0.6790     1.9190    -2.3940 hn         1 G80       0.412000
     76 HO2         10.2180    -1.7280     3.7060 ho         1 G80       0.441000
@<TRIPOS>BOND
     1     1     5 2   
     2     2    13 1   
     3     2    76 1   
     4     3     4 1   
     5     3    11 1   
     6     3    34 1   
     7     3    35 1   
     8     4     5 1   
     9     4    36 1   
    10     4    37 1   
    11     5     6 1   
    12     6     7 1   
    13     6    11 1   
    14     6    38 1   
    15     7     8 1   
    16     7    16 1   
    17     7    17 1   
    18     8     9 1   
    19     8    18 1   
    20     8    39 1   
    21     9    10 1   
    22     9    40 1   
    23     9    41 1   
    24    10    11 1   
    25    10    42 1   
    26    10    43 1   
    27    11    12 1   
    28    12    13 1   
    29    12    19 1   
    30    12    44 1   
    31    13    14 1   
    32    13    45 1   
    33    14    15 1   
    34    14    20 1   
    35    14    21 1   
    36    15    16 1   
    37    15    46 1   
    38    15    47 1   
    39    16    23 1   
    40    16    48 1   
    41    17    49 1   
    42    17    50 1   
    43    17    51 1   
    44    18    52 1   
    45    18    53 1   
    46    18    54 1   
    47    19    55 1   
    48    19    56 1   
    49    19    57 1   
    50    20    58 1   
    51    20    59 1   
    52    20    60 1   
    53    21    22 2   
    54    21    61 1   
    55    22    62 1   
    56    22    63 1   
    57    23    24 1   
    58    24    25 2   
    59    24    26 1   
    60    26    27 1   
    61    26    64 1   
    62    26    65 1   
    63    27    28 1   
    64    28    29 1   
    65    28    32 1   
    66    28    66 1   
    67    29    30 1   
    68    29    67 1   
    69    29    68 1   
    70    30    33 1   
    71    30    69 1   
    72    30    70 1   
    73    31    32 1   
    74    31    33 1   
    75    31    71 1   
    76    31    72 1   
    77    32    73 1   
    78    32    74 1   
    79    33    75 1   
@<TRIPOS>SUBSTRUCTURE
     1 G80         1 TEMP              0 ****  ****    0 ROOT
