@<TRIPOS>MOLECULE
G81
   71    72     1     0     0
SMALL
abcg2


@<TRIPOS>ATOM
      1 O35          3.5570    -0.7300     1.2770 o          1 G81      -0.551000
      2 C31          3.4590    -0.8340     0.0720 c          1 G81       0.656100
      3 O1           4.4030    -1.2840    -0.7520 os         1 G81      -0.474100
      4 C1           5.7450    -1.6090    -0.3020 c3         1 G81       0.225000
      5 C2           5.7310    -2.7440     0.7150 c3         1 G81      -0.108767
      6 C4           6.4320    -2.0730    -1.5810 c3         1 G81      -0.108767
      7 C6           6.4380    -0.3660     0.2420 c3         1 G81      -0.108767
      8 N33          2.3410    -0.5370    -0.6310 ns         1 G81      -0.489900
      9 C37          1.2170     0.1330    -0.0410 c3         1 G81       0.044700
     10 C41          1.1930     1.6370    -0.3920 c3         1 G81      -0.052100
     11 C51          2.4650     2.3210     0.0160 ca         1 G81      -0.084300
     12 C53          3.5180     2.4620    -0.8840 ca         1 G81      -0.097500
     13 C7           4.7140     3.0480    -0.4920 ca         1 G81      -0.108000
     14 C9           4.8740     3.5010     0.8100 ca         1 G81      -0.107000
     15 C11          3.8280     3.3680     1.7150 ca         1 G81      -0.108000
     16 C55          2.6350     2.7810     1.3190 ca         1 G81      -0.097500
     17 C39         -0.0780    -0.5020    -0.5400 c          1 G81       0.592100
     18 O47         -0.1780    -0.9020    -1.6900 o          1 G81      -0.592100
     19 N49         -1.0700    -0.5130     0.3590 ns         1 G81      -0.507900
     20 C57         -2.4220    -0.9810     0.1060 c3         1 G81       0.110700
     21 C59         -2.6480    -2.2690     0.9040 c3         1 G81      -0.068400
     22 C61         -4.0490    -2.8660     0.8670 c5         1 G81      -0.153700
     23 C73         -4.2030    -4.1120     1.7430 c5         1 G81      -0.092400
     24 C71         -5.3230    -4.9020     1.0660 c5         1 G81       0.100000
     25 N69         -5.1890    -4.4940    -0.3160 ns         1 G81      -0.513900
     26 C65         -4.5190    -3.3440    -0.4980 c          1 G81       0.561000
     27 O66         -4.3450    -2.7810    -1.5690 o          1 G81      -0.550000
     28 C63         -3.4370     0.1110     0.4400 c3         1 G81      -0.080400
     29 C82         -3.1570     1.4110    -0.2950 c3         1 G81      -0.136400
     30 C84         -4.2200     2.4550    -0.0790 c          1 G81       0.594100
     31 O88         -5.2640     2.2760     0.4970 o          1 G81      -0.495000
     32 O86         -3.8720     3.6170    -0.6170 os         1 G81      -0.454100
     33 C3          -4.8010     4.7090    -0.5310 c3         1 G81       0.167600
     34 C5          -4.1650     5.9080    -1.1920 c3         1 G81      -0.097100
     35 H33          2.3770    -0.5900    -1.6380 hn         1 G81       0.339500
     36 H21C         5.1670    -3.6000     0.3390 hc         1 G81       0.049256
     37 H22C         6.7540    -3.0790     0.8920 hc         1 G81       0.049256
     38 H23C         5.3110    -2.4410     1.6700 hc         1 G81       0.049256
     39 H41C         6.4310    -1.2910    -2.3410 hc         1 G81       0.049256
     40 H42C         7.4690    -2.3340    -1.3730 hc         1 G81       0.049256
     41 H43C         5.9420    -2.9570    -1.9950 hc         1 G81       0.049256
     42 H61C         5.9740    -0.0070     1.1580 hc         1 G81       0.049256
     43 H62C         7.4810    -0.5980     0.4600 hc         1 G81       0.049256
     44 H63C         6.4180     0.4430    -0.4890 hc         1 G81       0.049256
     45 H37          1.2960     0.0260     1.0420 h1         1 G81       0.089700
     46 H411         1.0330     1.7460    -1.4680 hc         1 G81       0.059200
     47 H412         0.3370     2.0990     0.1070 hc         1 G81       0.059200
     48 H53          3.4000     2.1180    -1.9050 ha         1 G81       0.110000
     49 H55          1.8240     2.6800     2.0310 ha         1 G81       0.110000
     50 H7           5.5220     3.1490    -1.2060 ha         1 G81       0.111500
     51 H9           5.8050     3.9590     1.1180 ha         1 G81       0.111000
     52 H11          3.9420     3.7250     2.7310 ha         1 G81       0.111500
     53 H49         -0.8570    -0.2160     1.3000 hn         1 G81       0.309500
     54 H57         -2.4850    -1.2000    -0.9590 h1         1 G81       0.110700
     55 H591        -1.9290    -3.0200     0.5640 hc         1 G81       0.049200
     56 H592        -2.4060    -2.0700     1.9540 hc         1 G81       0.049200
     57 H631        -4.4280    -0.2520     0.1670 hc         1 G81       0.059200
     58 H632        -3.4520     0.2840     1.5200 hc         1 G81       0.059200
     59 H61         -4.7780    -2.1140     1.1950 hc         1 G81       0.077700
     60 H731        -3.2770    -4.6920     1.7250 hc         1 G81       0.058200
     61 H732        -4.4300    -3.8750     2.7810 hc         1 G81       0.058200
     62 H711        -5.2030    -5.9790     1.1730 h1         1 G81       0.045700
     63 H712        -6.3060    -4.6310     1.4640 h1         1 G81       0.045700
     64 H69         -5.7000    -4.9360    -1.0640 hn         1 G81       0.329500
     65 H821        -2.1950     1.8340     0.0020 hc         1 G81       0.077200
     66 H822        -3.0800     1.2330    -1.3740 hc         1 G81       0.077200
     67 H31C        -5.7340     4.4360    -1.0300 h1         1 G81       0.047700
     68 H32C        -5.0300     4.9190     0.5150 h1         1 G81       0.047700
     69 H51C        -3.2470     6.2040    -0.6850 hc         1 G81       0.046700
     70 H52C        -3.9390     5.7160    -2.2410 hc         1 G81       0.046700
     71 H53C        -4.8570     6.7480    -1.1490 hc         1 G81       0.046700
@<TRIPOS>BOND
     1     1     2 2   
     2     2     3 1   
     3     2     8 1   
     4     3     4 1   
     5     4     5 1   
     6     4     6 1   
     7     4     7 1   
     8     5    36 1   
     9     5    37 1   
    10     5    38 1   
    11     6    39 1   
    12     6    40 1   
    13     6    41 1   
    14     7    42 1   
    15     7    43 1   
    16     7    44 1   
    17     8     9 1   
    18     8    35 1   
    19     9    10 1   
    20     9    17 1   
    21     9    45 1   
    22    10    11 1   
    23    10    46 1   
    24    10    47 1   
    25    11    12 ar  
    26    11    16 ar  
    27    12    13 ar  
    28    12    48 1   
    29    13    14 ar  
    30    13    50 1   
    31    14    15 ar  
    32    14    51 1   
    33    15    16 ar  
    34    15    52 1   
    35    16    49 1   
    36    17    18 2   
    37    17    19 1   
    38    19    20 1   
    39    19    53 1   
    40    20    21 1   
    41    20    28 1   
    42    20    54 1   
    43    21    22 1   
    44    21    55 1   
    45    21    56 1   
    46    22    23 1   
    47    22    26 1   
    48    22    59 1   
    49    23    24 1   
    50    23    60 1   
    51    23    61 1   
    52    24    25 1   
    53    24    62 1   
    54    24    63 1   
    55    25    26 1   
    56    25    64 1   
    57    26    27 2   
    58    28    29 1   
    59    28    57 1   
    60    28    58 1   
    61    29    30 1   
    62    29    65 1   
    63    29    66 1   
    64    30    31 2   
    65    30    32 1   
    66    32    33 1   
    67    33    34 1   
    68    33    67 1   
    69    33    68 1   
    70    34    69 1   
    71    34    70 1   
    72    34    71 1   
@<TRIPOS>SUBSTRUCTURE
     1 G81         1 TEMP              0 ****  ****    0 ROOT
