@<TRIPOS>MOLECULE
G81
   71    72     1     0     0
SMALL
No Charge or Current Charge


@<TRIPOS>ATOM
      1 O35          3.8500    -0.4350     1.3170 o          1 G81      -0.551000
      2 C31          3.6690    -0.8430     0.1810 c          1 G81       0.656100
      3 O1           4.5750    -1.4700    -0.6290 os         1 G81      -0.474100
      4 C1           5.9610    -1.6440    -0.2520 c3         1 G81       0.225000
      5 C2           6.0550    -2.5450     1.0070 c3         1 G81      -0.108767
      6 C4           6.5980    -2.3620    -1.4620 c3         1 G81      -0.108767
      7 C6           6.6210    -0.2530    -0.0560 c3         1 G81      -0.108767
      8 N33          2.4880    -0.7550    -0.4980 ns         1 G81      -0.489900
      9 C37          1.2870    -0.0290    -0.0280 c3         1 G81       0.044700
     10 C41          1.2860     1.4380    -0.5370 c3         1 G81      -0.052100
     11 C51          2.5540     2.2070    -0.1800 ca         1 G81      -0.084300
     12 C53          3.5940     2.3460    -1.1220 ca         1 G81      -0.097500
     13 C7           4.7690     3.0390    -0.7850 ca         1 G81      -0.108000
     14 C9           4.9130     3.5990     0.4960 ca         1 G81      -0.107000
     15 C11          3.8790     3.4670     1.4380 ca         1 G81      -0.108000
     16 C55          2.7030     2.7730     1.1010 ca         1 G81      -0.097500
     17 C39         -0.0080    -0.7760    -0.4570 c          1 G81       0.592100
     18 O47         -0.0170    -1.6900    -1.2730 o          1 G81      -0.592100
     19 N49         -1.1640    -0.3310     0.1520 ns         1 G81      -0.507900
     20 C57         -2.5070    -0.8650    -0.1000 c3         1 G81       0.110700
     21 C59         -2.8260    -1.9670     0.9470 c3         1 G81      -0.068400
     22 C61         -4.1980    -2.6910     0.8160 c5         1 G81      -0.153700
     23 C73         -4.4510    -3.7620     1.9130 c5         1 G81      -0.092400
     24 C71         -5.6050    -4.5840     1.2760 c5         1 G81       0.100000
     25 N69         -5.2110    -4.5510    -0.1310 ns         1 G81      -0.513900
     26 C65         -4.4100    -3.4960    -0.4770 c          1 G81       0.561000
     27 O66         -3.8310    -3.4310    -1.5480 o          1 G81      -0.550000
     28 C63         -3.5420     0.2880    -0.1320 c3         1 G81      -0.080400
     29 C82         -3.2220     1.3990    -1.1680 c3         1 G81      -0.136400
     30 C84         -4.3230     2.4610    -1.2000 c          1 G81       0.594100
     31 O88         -5.3500     2.3540    -1.8570 o          1 G81      -0.495000
     32 O86         -4.0430     3.5080    -0.3620 os         1 G81      -0.454100
     33 C3          -5.0030     4.5730    -0.2680 c3         1 G81       0.167600
     34 C5          -4.4480     5.6050     0.7260 c3         1 G81      -0.097100
     35 H33          2.4760    -1.1810    -1.4160 hn         1 G81       0.339500
     36 H21C         5.4240    -3.4350     0.8960 hc         1 G81       0.049256
     37 H22C         7.0880    -2.8790     1.1600 hc         1 G81       0.049256
     38 H23C         5.7500    -2.0150     1.9150 hc         1 G81       0.049256
     39 H41C         6.4990    -1.7570    -2.3710 hc         1 G81       0.049256
     40 H42C         7.6660    -2.5440    -1.2900 hc         1 G81       0.049256
     41 H43C         6.1140    -3.3300    -1.6400 hc         1 G81       0.049256
     42 H61C         6.2720     0.2420     0.8570 hc         1 G81       0.049256
     43 H62C         7.7090    -0.3550     0.0250 hc         1 G81       0.049256
     44 H63C         6.4050     0.4020    -0.9080 hc         1 G81       0.049256
     45 H37          1.2930    -0.0180     1.0700 h1         1 G81       0.089700
     46 H411         1.1470     1.4340    -1.6260 hc         1 G81       0.059200
     47 H412         0.4140     1.9630    -0.1280 hc         1 G81       0.059200
     48 H53          3.4950     1.9090    -2.1130 ha         1 G81       0.110000
     49 H55          1.9110     2.6700     1.8390 ha         1 G81       0.110000
     50 H7           5.5690     3.1390    -1.5150 ha         1 G81       0.111500
     51 H9           5.8230     4.1340     0.7570 ha         1 G81       0.111000
     52 H11          3.9890     3.8990     2.4300 ha         1 G81       0.111500
     53 H49         -1.0670     0.4190     0.8260 hn         1 G81       0.309500
     54 H57         -2.5060    -1.3290    -1.0960 h1         1 G81       0.110700
     55 H591        -2.0260    -2.7170     0.9040 hc         1 G81       0.049200
     56 H592        -2.7590    -1.5170     1.9460 hc         1 G81       0.049200
     57 H631        -4.5300    -0.1230    -0.3710 hc         1 G81       0.059200
     58 H632        -3.6190     0.7360     0.8680 hc         1 G81       0.059200
     59 H61         -5.0170    -1.9670     0.8930 hc         1 G81       0.077700
     60 H731        -3.5670    -4.3920     2.0680 hc         1 G81       0.058200
     61 H732        -4.7240    -3.3310     2.8830 hc         1 G81       0.058200
     62 H711        -5.6570    -5.6030     1.6820 h1         1 G81       0.045700
     63 H712        -6.5780    -4.0980     1.4290 h1         1 G81       0.045700
     64 H69         -5.4000    -5.2690    -0.8210 hn         1 G81       0.329500
     65 H821        -2.2820     1.8800    -0.8760 hc         1 G81       0.077200
     66 H822        -3.1330     0.9470    -2.1620 hc         1 G81       0.077200
     67 H31C        -5.1560     5.0510    -1.2450 h1         1 G81       0.047700
     68 H32C        -5.9700     4.1990     0.0930 h1         1 G81       0.047700
     69 H51C        -4.3020     5.1500     1.7130 hc         1 G81       0.046700
     70 H52C        -3.4880     6.0020     0.3760 hc         1 G81       0.046700
     71 H53C        -5.1480     6.4420     0.8340 hc         1 G81       0.046700
@<TRIPOS>BOND
     1     1     2 2   
     2     2     3 1   
     3     2     8 1   
     4     3     4 1   
     5     4     5 1   
     6     4     6 1   
     7     4     7 1   
     8     5    36 1   
     9     5    37 1   
    10     5    38 1   
    11     6    39 1   
    12     6    40 1   
    13     6    41 1   
    14     7    42 1   
    15     7    43 1   
    16     7    44 1   
    17     8     9 1   
    18     8    35 1   
    19     9    10 1   
    20     9    17 1   
    21     9    45 1   
    22    10    11 1   
    23    10    46 1   
    24    10    47 1   
    25    11    12 ar  
    26    11    16 ar  
    27    12    13 ar  
    28    12    48 1   
    29    13    14 ar  
    30    13    50 1   
    31    14    15 ar  
    32    14    51 1   
    33    15    16 ar  
    34    15    52 1   
    35    16    49 1   
    36    17    18 2   
    37    17    19 1   
    38    19    20 1   
    39    19    53 1   
    40    20    21 1   
    41    20    28 1   
    42    20    54 1   
    43    21    22 1   
    44    21    55 1   
    45    21    56 1   
    46    22    23 1   
    47    22    26 1   
    48    22    59 1   
    49    23    24 1   
    50    23    60 1   
    51    23    61 1   
    52    24    25 1   
    53    24    62 1   
    54    24    63 1   
    55    25    26 1   
    56    25    64 1   
    57    26    27 2   
    58    28    29 1   
    59    28    57 1   
    60    28    58 1   
    61    29    30 1   
    62    29    65 1   
    63    29    66 1   
    64    30    31 2   
    65    30    32 1   
    66    32    33 1   
    67    33    34 1   
    68    33    67 1   
    69    33    68 1   
    70    34    69 1   
    71    34    70 1   
    72    34    71 1   
@<TRIPOS>SUBSTRUCTURE
     1 G81         1 TEMP              0 ****  ****    0 ROOT
