@<TRIPOS>MOLECULE
G82
  100   102     1     0     0
SMALL
bcc


@<TRIPOS>ATOM
      1 O88          7.8380    -2.5410     0.4920 o          1 G82      -0.546000
      2 C84          6.9650    -2.5140    -0.3410 c          1 G82       0.642100
      3 O86          6.8960    -3.3640    -1.3560 os         1 G82      -0.428900
      4 C3           7.9100    -4.3770    -1.4600 c3         1 G82       0.144400
      5 C5           7.6210    -5.1940    -2.6960 c3         1 G82      -0.098100
      6 C82          5.8240    -1.5320    -0.3660 c3         1 G82      -0.136400
      7 C63          5.8960    -0.5050     0.7520 c3         1 G82      -0.078400
      8 C57          4.7710     0.5220     0.6690 c3         1 G82       0.109700
      9 C59          4.8200     1.5670     1.7900 c3         1 G82      -0.070400
     10 C61          6.1230     2.3370     1.9620 c5         1 G82      -0.151700
     11 C73          6.1040     3.3020     3.1490 c5         1 G82      -0.092400
     12 C71          7.0980     4.3940     2.7530 c5         1 G82       0.100000
     13 N69          7.0130     4.3690     1.3080 ns         1 G82      -0.580900
     14 C65          6.5080     3.2350     0.7950 c          1 G82       0.704500
     15 O66          6.4050     2.9730    -0.3940 o          1 G82      -0.626500
     16 N49          3.4810    -0.1470     0.7200 ns         1 G82      -0.574900
     17 C39          2.4720     0.0670    -0.1360 c          1 G82       0.657100
     18 O47          2.5170     0.8330    -1.0850 o          1 G82      -0.592100
     19 C37          1.2380    -0.7920     0.1290 c3         1 G82       0.026700
     20 C41          1.3970    -2.1510    -0.5870 c3         1 G82      -0.045100
     21 C51          0.2140    -3.0440    -0.3470 ca         1 G82      -0.086300
     22 C55         -0.8910    -3.0140    -1.1940 ca         1 G82      -0.117000
     23 C11         -1.9990    -3.8120    -0.9430 ca         1 G82      -0.124000
     24 C9          -2.0150    -4.6570     0.1580 ca         1 G82      -0.128000
     25 C7          -0.9190    -4.6930     1.0110 ca         1 G82      -0.124000
     26 C53          0.1840    -3.8900     0.7590 ca         1 G82      -0.117000
     27 N33          0.0610    -0.1040    -0.3240 ns         1 G82      -0.550900
     28 C31         -1.0720    -0.0140     0.3900 c          1 G82       0.651100
     29 O35         -1.1950    -0.4130     1.5360 o          1 G82      -0.599100
     30 C23         -2.2230     0.6850    -0.3340 c3         1 G82       0.039700
     31 C25         -2.1980     2.1820    -0.0120 c3         1 G82      -0.072400
     32 C15         -3.2600     2.9300    -0.7990 c3         1 G82      -0.141400
     33 C14         -3.2120     4.4250    -0.5960 c          1 G82       0.655100
     34 O2          -4.0800     5.0250    -1.3950 os         1 G82      -0.443900
     35 C29         -4.2540     6.4720    -1.4630 c3         1 G82       0.183800
     36 C45         -2.9690     7.1430    -1.9320 c3         1 G82      -0.107100
     37 C43         -5.3400     6.6330    -2.5190 c3         1 G82      -0.107100
     38 C12         -4.7400     7.0240    -0.1290 c3         1 G82      -0.107100
     39 O1          -2.4830     4.9810     0.1870 o          1 G82      -0.546000
     40 N21         -3.4710     0.0780     0.0480 ns         1 G82      -0.547900
     41 C17         -4.1290    -0.7880    -0.7510 c          1 G82       0.756100
     42 O19         -3.8960    -0.9830    -1.9250 o          1 G82      -0.599000
     43 O15         -5.1060    -1.3970    -0.0720 os         1 G82      -0.429900
     44 C13         -5.9080    -2.3460    -0.7830 c3         1 G82       0.208700
     45 C4          -6.6960    -3.1050     0.2410 ca         1 G82      -0.102300
     46 C2          -8.0490    -2.8540     0.4360 ca         1 G82      -0.102500
     47 C1          -8.7650    -3.5560     1.3990 ca         1 G82      -0.133000
     48 C10         -8.1300    -4.5120     2.1780 ca         1 G82      -0.115000
     49 C8          -6.7770    -4.7680     1.9900 ca         1 G82      -0.133000
     50 C6          -6.0660    -4.0680     1.0270 ca         1 G82      -0.102500
     51 H821         5.8140    -1.0360    -1.3420 hc         1 G82       0.077200
     52 H822         4.8920    -2.1040    -0.3180 hc         1 G82       0.077200
     53 H31C         8.8940    -3.9080    -1.5250 h1         1 G82       0.048200
     54 H32C         7.8950    -5.0040    -0.5670 h1         1 G82       0.048200
     55 H51C         6.6490    -5.6840    -2.6360 hc         1 G82       0.046700
     56 H52C         7.6470    -4.5820    -3.5980 hc         1 G82       0.046700
     57 H53C         8.3790    -5.9690    -2.7970 hc         1 G82       0.046700
     58 H631         5.8760    -1.0020     1.7270 hc         1 G82       0.059200
     59 H632         6.8490     0.0230     0.6940 hc         1 G82       0.059200
     60 H57          4.8260     1.0270    -0.2940 h1         1 G82       0.110700
     61 H591         4.0030     2.2770     1.6320 hc         1 G82       0.049700
     62 H592         4.6080     1.0640     2.7390 hc         1 G82       0.049700
     63 H49          3.3080    -0.7490     1.5110 hn         1 G82       0.310500
     64 H61          6.9550     1.6350     2.0920 hc         1 G82       0.076700
     65 H731         5.1060     3.7340     3.2590 hc         1 G82       0.059200
     66 H732         6.3660     2.8240     4.0910 hc         1 G82       0.059200
     67 H711         6.8280     5.3730     3.1460 h1         1 G82       0.045700
     68 H712         8.1110     4.1610     3.0930 h1         1 G82       0.045700
     69 H69          7.4490     5.0680     0.7270 hn         1 G82       0.328500
     70 H37          1.1280    -0.9680     1.2000 h1         1 G82       0.091700
     71 H411         1.5340    -1.9740    -1.6570 hc         1 G82       0.058700
     72 H412         2.3090    -2.6320    -0.2260 hc         1 G82       0.058700
     73 H33          0.0660     0.2370    -1.2730 hn         1 G82       0.333500
     74 H55         -0.8890    -2.3640    -2.0610 ha         1 G82       0.129000
     75 H53          1.0360    -3.9220     1.4290 ha         1 G82       0.129000
     76 H11         -2.8460    -3.7790    -1.6160 ha         1 G82       0.133000
     77 H9          -2.8700    -5.2930     0.3470 ha         1 G82       0.127000
     78 H7          -0.9220    -5.3500     1.8710 ha         1 G82       0.133000
     79 H23         -2.1090     0.5600    -1.4130 h1         1 G82       0.089700
     80 H251        -2.3370     2.3280     1.0620 hc         1 G82       0.071200
     81 H252        -1.2070     2.5680    -0.2580 hc         1 G82       0.071200
     82 H21         -3.6880     0.0690     1.0340 hn         1 G82       0.341500
     83 H151        -3.1570     2.7220    -1.8680 hc         1 G82       0.077700
     84 H152        -4.2590     2.5820    -0.5240 hc         1 G82       0.077700
     85 H451        -2.6010     6.6780    -2.8480 hc         1 G82       0.048922
     86 H452        -3.1730     8.1910    -2.1550 hc         1 G82       0.048922
     87 H453        -2.1810     7.1140    -1.1830 hc         1 G82       0.048922
     88 H431        -6.2650     6.1410    -2.2140 hc         1 G82       0.048922
     89 H432        -5.5590     7.6900    -2.6670 hc         1 G82       0.048922
     90 H433        -5.0260     6.2180    -3.4780 hc         1 G82       0.048922
     91 H121        -3.9770     6.9860     0.6440 hc         1 G82       0.048922
     92 H122        -5.0300     8.0670    -0.2590 hc         1 G82       0.048922
     93 H123        -5.6200     6.4790     0.2180 hc         1 G82       0.048922
     94 H131        -6.5690    -1.8290    -1.4830 h1         1 G82       0.055200
     95 H132        -5.2720    -3.0230    -1.3560 h1         1 G82       0.055200
     96 H2          -8.5500    -2.1070    -0.1670 ha         1 G82       0.133000
     97 H6          -5.0130    -4.2760     0.8810 ha         1 G82       0.133000
     98 H1          -9.8190    -3.3530     1.5400 ha         1 G82       0.132000
     99 H10         -8.6880    -5.0590     2.9270 ha         1 G82       0.131000
    100 H8          -6.2760    -5.5160     2.5910 ha         1 G82       0.132000
@<TRIPOS>BOND
     1     1     2 2   
     2     2     3 1   
     3     2     6 1   
     4     3     4 1   
     5     4     5 1   
     6     4    53 1   
     7     4    54 1   
     8     5    55 1   
     9     5    56 1   
    10     5    57 1   
    11     6     7 1   
    12     6    51 1   
    13     6    52 1   
    14     7     8 1   
    15     7    58 1   
    16     7    59 1   
    17     8     9 1   
    18     8    16 1   
    19     8    60 1   
    20     9    10 1   
    21     9    61 1   
    22     9    62 1   
    23    10    11 1   
    24    10    14 1   
    25    10    64 1   
    26    11    12 1   
    27    11    65 1   
    28    11    66 1   
    29    12    13 1   
    30    12    67 1   
    31    12    68 1   
    32    13    14 1   
    33    13    69 1   
    34    14    15 2   
    35    16    17 1   
    36    16    63 1   
    37    17    18 2   
    38    17    19 1   
    39    19    20 1   
    40    19    27 1   
    41    19    70 1   
    42    20    21 1   
    43    20    71 1   
    44    20    72 1   
    45    21    22 ar  
    46    21    26 ar  
    47    22    23 ar  
    48    22    74 1   
    49    23    24 ar  
    50    23    76 1   
    51    24    25 ar  
    52    24    77 1   
    53    25    26 ar  
    54    25    78 1   
    55    26    75 1   
    56    27    28 1   
    57    27    73 1   
    58    28    29 2   
    59    28    30 1   
    60    30    31 1   
    61    30    40 1   
    62    30    79 1   
    63    31    32 1   
    64    31    80 1   
    65    31    81 1   
    66    32    33 1   
    67    32    83 1   
    68    32    84 1   
    69    33    34 1   
    70    33    39 2   
    71    34    35 1   
    72    35    36 1   
    73    35    37 1   
    74    35    38 1   
    75    36    85 1   
    76    36    86 1   
    77    36    87 1   
    78    37    88 1   
    79    37    89 1   
    80    37    90 1   
    81    38    91 1   
    82    38    92 1   
    83    38    93 1   
    84    40    41 1   
    85    40    82 1   
    86    41    42 2   
    87    41    43 1   
    88    43    44 1   
    89    44    45 1   
    90    44    94 1   
    91    44    95 1   
    92    45    46 ar  
    93    45    50 ar  
    94    46    47 ar  
    95    46    96 1   
    96    47    48 ar  
    97    47    98 1   
    98    48    49 ar  
    99    48    99 1   
   100    49    50 ar  
   101    49   100 1   
   102    50    97 1   
@<TRIPOS>SUBSTRUCTURE
     1 G82         1 TEMP              0 ****  ****    0 ROOT
