@<TRIPOS>MOLECULE
G82
  100   102     1     0     0
SMALL
No Charge or Current Charge


@<TRIPOS>ATOM
      1 O88          7.5620    -0.4610    -2.7660 o          1 G82      -0.497000
      2 C84          6.7070    -1.0640    -2.1320 c          1 G82       0.593100
      3 O86          6.7390    -2.4090    -1.8680 os         1 G82      -0.452100
      4 C3           7.8380    -3.1740    -2.3910 c3         1 G82       0.167600
      5 C5           7.6320    -4.6330    -1.9550 c3         1 G82      -0.098100
      6 C82          5.4990    -0.3880    -1.4820 c3         1 G82      -0.136400
      7 C63          5.8560     0.1760    -0.0810 c3         1 G82      -0.078400
      8 C57          4.7030     0.9550     0.6030 c3         1 G82       0.109700
      9 C59          5.0610     1.4920     2.0150 c3         1 G82      -0.070400
     10 C61          6.2600     2.4800     2.1110 c5         1 G82      -0.151700
     11 C73          6.5870     2.9350     3.5590 c5         1 G82      -0.092400
     12 C71          7.4590     4.1930     3.2940 c5         1 G82       0.100000
     13 N69          6.7900     4.7380     2.1150 ns         1 G82      -0.513900
     14 C65          6.0800     3.8240     1.3850 c          1 G82       0.562000
     15 O66          5.2930     4.1450     0.5100 o          1 G82      -0.551000
     16 N49          3.5070     0.1110     0.6990 ns         1 G82      -0.507900
     17 C39          2.3090     0.3530     0.0570 c          1 G82       0.590100
     18 O47          2.1350     1.3420    -0.6450 o          1 G82      -0.592100
     19 C37          1.2120    -0.7210     0.2930 c3         1 G82       0.026700
     20 C41          1.5630    -2.0460    -0.4360 c3         1 G82      -0.045100
     21 C51          0.4820    -3.1150    -0.3060 ca         1 G82      -0.086300
     22 C55         -0.4780    -3.2870    -1.3240 ca         1 G82      -0.099000
     23 C11         -1.4860    -4.2570    -1.1920 ca         1 G82      -0.106000
     24 C9          -1.5390    -5.0650    -0.0430 ca         1 G82      -0.110000
     25 C7          -0.5820    -4.9020     0.9730 ca         1 G82      -0.106000
     26 C53          0.4250    -3.9290     0.8420 ca         1 G82      -0.099000
     27 N33         -0.1130    -0.2130    -0.1370 ns         1 G82      -0.483900
     28 C31         -1.3060    -0.4670     0.5100 c          1 G82       0.584100
     29 O35         -1.3520    -1.0620     1.5800 o          1 G82      -0.599100
     30 C23         -2.5730     0.0590    -0.2220 c3         1 G82       0.039700
     31 C25         -2.7090     1.5990    -0.0690 c3         1 G82      -0.072400
     32 C15         -3.8810     2.2270    -0.8670 c3         1 G82      -0.141400
     33 C14         -3.8770     3.7510    -0.7460 c          1 G82       0.606100
     34 O2          -3.1230     4.3230    -1.7460 os         1 G82      -0.467100
     35 C29         -2.9020     5.7500    -1.8460 c3         1 G82       0.207000
     36 C45         -2.1240     6.2440    -0.5990 c3         1 G82      -0.107100
     37 C43         -2.0280     5.9100    -3.1090 c3         1 G82      -0.107100
     38 C12         -4.2570     6.4760    -2.0460 c3         1 G82      -0.107100
     39 O1          -4.4120     4.3460     0.1780 o          1 G82      -0.497000
     40 N21         -3.7720    -0.6430     0.2860 ns         1 G82      -0.480900
     41 C17         -4.8350    -1.0400    -0.4730 c          1 G82       0.640100
     42 O19         -4.9550    -0.8510    -1.6720 o          1 G82      -0.550000
     43 O15         -5.7230    -1.6900     0.3250 os         1 G82      -0.453100
     44 C13         -6.9170    -2.1990    -0.2890 c3         1 G82       0.231900
     45 C4          -7.7510    -2.8860     0.7830 ca         1 G82      -0.102300
     46 C2          -8.7120    -2.1570     1.5130 ca         1 G82      -0.084500
     47 C1          -9.4820    -2.7930     2.5040 ca         1 G82      -0.115000
     48 C10         -9.2940    -4.1590     2.7720 ca         1 G82      -0.097000
     49 C8          -8.3360    -4.8900     2.0500 ca         1 G82      -0.115000
     50 C6          -7.5660    -4.2560     1.0590 ca         1 G82      -0.084500
     51 H821         5.1590     0.4330    -2.1240 hc         1 G82       0.077200
     52 H822         4.7060    -1.1350    -1.3570 hc         1 G82       0.077200
     53 H31C         7.8660    -3.1190    -3.4880 h1         1 G82       0.048200
     54 H32C         8.7950    -2.8050    -1.9980 h1         1 G82       0.048200
     55 H51C         7.6150    -4.7100    -0.8610 hc         1 G82       0.046700
     56 H52C         6.6860    -5.0240    -2.3490 hc         1 G82       0.046700
     57 H53C         8.4480    -5.2600    -2.3320 hc         1 G82       0.046700
     58 H631         6.1720    -0.6490     0.5700 hc         1 G82       0.059200
     59 H632         6.7210     0.8400    -0.1920 hc         1 G82       0.059200
     60 H57          4.4690     1.8190    -0.0350 h1         1 G82       0.110700
     61 H591         4.1690     1.9800     2.4280 hc         1 G82       0.049700
     62 H592         5.2590     0.6320     2.6670 hc         1 G82       0.049700
     63 H49          3.5590    -0.7270     1.2660 hn         1 G82       0.310500
     64 H61          7.1700     2.0110     1.7200 hc         1 G82       0.076700
     65 H731         5.6760     3.2040     4.1080 hc         1 G82       0.059200
     66 H732         7.1110     2.1720     4.1450 hc         1 G82       0.059200
     67 H711         7.4530     4.8860     4.1470 h1         1 G82       0.045700
     68 H712         8.5000     3.9220     3.0730 h1         1 G82       0.045700
     69 H69          6.7250     5.7190     1.8660 hn         1 G82       0.328500
     70 H37          1.1850    -0.9110     1.3740 h1         1 G82       0.091700
     71 H411         1.7430    -1.8290    -1.4970 hc         1 G82       0.058700
     72 H412         2.5120    -2.4340    -0.0470 hc         1 G82       0.058700
     73 H33         -0.1580     0.3270    -0.9950 hn         1 G82       0.333500
     74 H55         -0.4480    -2.6620    -2.2140 ha         1 G82       0.111000
     75 H53          1.1570    -3.8040     1.6370 ha         1 G82       0.111000
     76 H11         -2.2270    -4.3810    -1.9780 ha         1 G82       0.115000
     77 H9          -2.3200    -5.8150     0.0590 ha         1 G82       0.109000
     78 H7          -0.6230    -5.5250     1.8630 ha         1 G82       0.115000
     79 H23         -2.4450    -0.1840    -1.2850 h1         1 G82       0.089700
     80 H251        -2.8240     1.8450     0.9950 hc         1 G82       0.071200
     81 H252        -1.7740     2.0720    -0.3960 hc         1 G82       0.071200
     82 H21         -3.7990    -0.9170     1.2600 hn         1 G82       0.341500
     83 H151        -3.7490     1.9520    -1.9200 hc         1 G82       0.077700
     84 H152        -4.8330     1.8450    -0.4820 hc         1 G82       0.077700
     85 H451        -1.2650     5.5950    -0.3930 hc         1 G82       0.048922
     86 H452        -1.7480     7.2610    -0.7630 hc         1 G82       0.048922
     87 H453        -2.7570     6.2750     0.2940 hc         1 G82       0.048922
     88 H431        -2.5460     5.5230    -3.9950 hc         1 G82       0.048922
     89 H432        -1.7920     6.9660    -3.2900 hc         1 G82       0.048922
     90 H433        -1.0820     5.3650    -3.0010 hc         1 G82       0.048922
     91 H121        -4.8510     6.4970    -1.1260 hc         1 G82       0.048922
     92 H122        -4.0910     7.5170    -2.3470 hc         1 G82       0.048922
     93 H123        -4.8490     5.9890    -2.8290 hc         1 G82       0.048922
     94 H131        -7.4980    -1.3850    -0.7430 h1         1 G82       0.055200
     95 H132        -6.6710    -2.9200    -1.0810 h1         1 G82       0.055200
     96 H2          -8.8620    -1.0980     1.3140 ha         1 G82       0.115000
     97 H6          -6.8240    -4.8290     0.5060 ha         1 G82       0.115000
     98 H1         -10.2220    -2.2250     3.0630 ha         1 G82       0.114000
     99 H10         -9.8890    -4.6500     3.5400 ha         1 G82       0.113000
    100 H8          -8.1880    -5.9480     2.2580 ha         1 G82       0.114000
@<TRIPOS>BOND
     1     1     2 2   
     2     2     3 1   
     3     2     6 1   
     4     3     4 1   
     5     4     5 1   
     6     4    53 1   
     7     4    54 1   
     8     5    55 1   
     9     5    56 1   
    10     5    57 1   
    11     6     7 1   
    12     6    51 1   
    13     6    52 1   
    14     7     8 1   
    15     7    58 1   
    16     7    59 1   
    17     8     9 1   
    18     8    16 1   
    19     8    60 1   
    20     9    10 1   
    21     9    61 1   
    22     9    62 1   
    23    10    11 1   
    24    10    14 1   
    25    10    64 1   
    26    11    12 1   
    27    11    65 1   
    28    11    66 1   
    29    12    13 1   
    30    12    67 1   
    31    12    68 1   
    32    13    14 1   
    33    13    69 1   
    34    14    15 2   
    35    16    17 1   
    36    16    63 1   
    37    17    18 2   
    38    17    19 1   
    39    19    20 1   
    40    19    27 1   
    41    19    70 1   
    42    20    21 1   
    43    20    71 1   
    44    20    72 1   
    45    21    22 ar  
    46    21    26 ar  
    47    22    23 ar  
    48    22    74 1   
    49    23    24 ar  
    50    23    76 1   
    51    24    25 ar  
    52    24    77 1   
    53    25    26 ar  
    54    25    78 1   
    55    26    75 1   
    56    27    28 1   
    57    27    73 1   
    58    28    29 2   
    59    28    30 1   
    60    30    31 1   
    61    30    40 1   
    62    30    79 1   
    63    31    32 1   
    64    31    80 1   
    65    31    81 1   
    66    32    33 1   
    67    32    83 1   
    68    32    84 1   
    69    33    34 1   
    70    33    39 2   
    71    34    35 1   
    72    35    36 1   
    73    35    37 1   
    74    35    38 1   
    75    36    85 1   
    76    36    86 1   
    77    36    87 1   
    78    37    88 1   
    79    37    89 1   
    80    37    90 1   
    81    38    91 1   
    82    38    92 1   
    83    38    93 1   
    84    40    41 1   
    85    40    82 1   
    86    41    42 2   
    87    41    43 1   
    88    43    44 1   
    89    44    45 1   
    90    44    94 1   
    91    44    95 1   
    92    45    46 ar  
    93    45    50 ar  
    94    46    47 ar  
    95    46    96 1   
    96    47    48 ar  
    97    47    98 1   
    98    48    49 ar  
    99    48    99 1   
   100    49    50 ar  
   101    49   100 1   
   102    50    97 1   
@<TRIPOS>SUBSTRUCTURE
     1 G82         1 TEMP              0 ****  ****    0 ROOT
