@<TRIPOS>MOLECULE
G83
   97    99     1     0     0
SMALL
No Charge or Current Charge


@<TRIPOS>ATOM
      1 O19          4.5680    -0.1690     1.9670 o          1 G83      -0.538000
      2 C17          4.5570    -0.0610     0.7520 c          1 G83       0.645100
      3 O15          5.6080    -0.2860    -0.0790 os         1 G83      -0.456100
      4 C13          6.8450    -0.7090     0.5160 c3         1 G83       0.231900
      5 C4           7.8990    -0.7910    -0.5790 ca         1 G83      -0.099300
      6 C6           8.5690     0.3730    -1.0030 ca         1 G83      -0.088500
      7 C8           9.5440     0.3020    -2.0140 ca         1 G83      -0.114500
      8 C10          9.8530    -0.9340    -2.6080 ca         1 G83      -0.101000
      9 C1           9.1850    -2.0980    -2.1910 ca         1 G83      -0.114500
     10 C2           8.2110    -2.0280    -1.1800 ca         1 G83      -0.088500
     11 N21          3.4790     0.3220     0.0080 ns         1 G83      -0.477900
     12 C23          2.1530     0.6820     0.5540 c3         1 G83       0.053700
     13 C25          1.9850     2.2210     0.6480 c3         1 G83      -0.151400
     14 C14          3.0900     2.8730     1.4780 c          1 G83       0.608100
     15 O1           3.0530     2.9340     2.6980 o          1 G83      -0.483000
     16 O2           4.0590     3.4240     0.6690 os         1 G83      -0.464100
     17 C29          5.2160     4.1220     1.1880 c3         1 G83       0.207000
     18 C12          6.0720     3.1560     2.0450 c3         1 G83      -0.107767
     19 C43          6.0030     4.5400    -0.0740 c3         1 G83      -0.107767
     20 C45          4.7570     5.3810     1.9680 c3         1 G83      -0.107767
     21 C31          1.0310     0.0380    -0.3070 c          1 G83       0.580100
     22 O35          1.2140    -0.3680    -1.4490 o          1 G83      -0.602100
     23 N33         -0.2010    -0.0490     0.3110 ns         1 G83      -0.485900
     24 C37         -1.3740    -0.7730    -0.2350 c3         1 G83       0.027700
     25 C41         -1.4270    -2.2270     0.3090 c3         1 G83      -0.043100
     26 C51         -0.1180    -2.9910     0.1260 ca         1 G83      -0.088300
     27 C53          0.8160    -3.0680     1.1790 ca         1 G83      -0.098000
     28 C7           2.0330    -3.7470     1.0000 ca         1 G83      -0.107000
     29 C9           2.3220    -4.3590    -0.2310 ca         1 G83      -0.110000
     30 C11          1.3930    -4.2910    -1.2830 ca         1 G83      -0.107000
     31 C55          0.1770    -3.6080    -1.1050 ca         1 G83      -0.098000
     32 C39         -2.6870    -0.0040     0.0800 c          1 G83       0.588100
     33 O47         -2.7430     0.9310     0.8690 o          1 G83      -0.596100
     34 N49         -3.8020    -0.4550    -0.5980 ns         1 G83      -0.504900
     35 C57         -5.1520     0.1000    -0.4590 c3         1 G83       0.108700
     36 C59         -5.3820     1.1770    -1.5530 c3         1 G83      -0.068400
     37 C61         -6.7510     1.9170    -1.5410 c5         1 G83      -0.152700
     38 C73         -6.9110     2.9630    -2.6780 c5         1 G83      -0.092400
     39 C71         -8.1000     3.8110    -2.1490 c5         1 G83       0.100000
     40 N69         -7.8130     3.8080    -0.7160 ns         1 G83      -0.513900
     41 C65         -7.0500     2.7550    -0.2870 c          1 G83       0.561000
     42 O66         -6.5510     2.7120     0.8250 o          1 G83      -0.550000
     43 C63         -6.2020    -1.0410    -0.4720 c3         1 G83      -0.078400
     44 C82         -5.9650    -2.1320     0.6050 c3         1 G83      -0.137400
     45 C84         -7.0980    -3.1590     0.6130 c          1 G83       0.594100
     46 O88         -7.1370    -4.1320    -0.1280 o          1 G83      -0.497000
     47 O86         -8.0820    -2.8230     1.5060 os         1 G83      -0.452100
     48 C3          -9.2260    -3.6870     1.6070 c3         1 G83       0.167600
     49 C5         -10.1660    -3.0850     2.6620 c3         1 G83      -0.097100
     50 H21          3.6130     0.3240    -0.9960 hn         1 G83       0.336500
     51 H131         7.1760     0.0050     1.2820 h1         1 G83       0.056700
     52 H132         6.7290    -1.6890     0.9990 h1         1 G83       0.056700
     53 H6           8.3330     1.3340    -0.5500 ha         1 G83       0.117000
     54 H2           7.6970    -2.9340    -0.8650 ha         1 G83       0.117000
     55 H8          10.0590     1.2040    -2.3370 ha         1 G83       0.114000
     56 H10         10.6070    -0.9890    -3.3910 ha         1 G83       0.113000
     57 H1           9.4230    -3.0550    -2.6510 ha         1 G83       0.114000
     58 H23          2.0590     0.2510     1.5600 h1         1 G83       0.110700
     59 H251         2.0240     2.6190    -0.3730 hc         1 G83       0.085700
     60 H252         1.0180     2.4520     1.1080 hc         1 G83       0.085700
     61 H121         6.2840     2.2340     1.4930 hc         1 G83       0.049256
     62 H122         7.0320     3.6220     2.2990 hc         1 G83       0.049256
     63 H123         5.5800     2.8920     2.9870 hc         1 G83       0.049256
     64 H431         5.3990     5.1960    -0.7110 hc         1 G83       0.049256
     65 H432         6.9190     5.0800     0.1980 hc         1 G83       0.049256
     66 H433         6.2900     3.6610    -0.6630 hc         1 G83       0.049256
     67 H451         4.3220     5.1260     2.9400 hc         1 G83       0.049256
     68 H452         5.6110     6.0420     2.1600 hc         1 G83       0.049256
     69 H453         4.0140     5.9470     1.3930 hc         1 G83       0.049256
     70 H33         -0.2850     0.3590     1.2360 hn         1 G83       0.338500
     71 H37         -1.2880    -0.8120    -1.3290 h1         1 G83       0.088700
     72 H411        -1.6920    -2.1960     1.3730 hc         1 G83       0.061200
     73 H412        -2.2420    -2.7700    -0.1850 hc         1 G83       0.061200
     74 H53          0.6030    -2.5930     2.1340 ha         1 G83       0.112500
     75 H55         -0.5320    -3.5520    -1.9280 ha         1 G83       0.112500
     76 H7           2.7520    -3.7980     1.8150 ha         1 G83       0.114500
     77 H9           3.2650    -4.8850    -0.3700 ha         1 G83       0.111000
     78 H11          1.6170    -4.7630    -2.2370 ha         1 G83       0.114500
     79 H49         -3.6640    -1.2220    -1.2460 hn         1 G83       0.310500
     80 H57         -5.2170     0.5890     0.5230 h1         1 G83       0.111700
     81 H591        -4.5790     1.9210    -1.4690 hc         1 G83       0.048200
     82 H592        -5.2470     0.7020    -2.5330 hc         1 G83       0.048200
     83 H631        -7.1980    -0.6130    -0.3080 hc         1 G83       0.058700
     84 H632        -6.2190    -1.5090    -1.4650 hc         1 G83       0.058700
     85 H61         -7.5700     1.1990    -1.6610 hc         1 G83       0.078700
     86 H731        -6.0100     3.5810    -2.7810 hc         1 G83       0.058200
     87 H732        -7.1150     2.5120    -3.6560 hc         1 G83       0.058200
     88 H711        -8.1100     4.8210    -2.5800 h1         1 G83       0.046200
     89 H712        -9.0640     3.3310    -2.3630 h1         1 G83       0.046200
     90 H69         -8.0450     4.5440    -0.0590 hn         1 G83       0.329500
     91 H821        -5.0200    -2.6510     0.4060 hc         1 G83       0.078200
     92 H822        -5.9330    -1.6320     1.5800 hc         1 G83       0.078200
     93 H31C        -9.7510    -3.7570     0.6450 h1         1 G83       0.047200
     94 H32C        -8.9270    -4.6980     1.9160 h1         1 G83       0.047200
     95 H51C       -11.0580    -3.7120     2.7770 hc         1 G83       0.047033
     96 H52C        -9.6640    -3.0190     3.6350 hc         1 G83       0.047033
     97 H53C       -10.4890    -2.0800     2.3640 hc         1 G83       0.047033
@<TRIPOS>BOND
     1     1     2 2   
     2     2     3 1   
     3     2    11 1   
     4     3     4 1   
     5     4     5 1   
     6     4    51 1   
     7     4    52 1   
     8     5     6 ar  
     9     5    10 ar  
    10     6     7 ar  
    11     6    53 1   
    12     7     8 ar  
    13     7    55 1   
    14     8     9 ar  
    15     8    56 1   
    16     9    10 ar  
    17     9    57 1   
    18    10    54 1   
    19    11    12 1   
    20    11    50 1   
    21    12    13 1   
    22    12    21 1   
    23    12    58 1   
    24    13    14 1   
    25    13    59 1   
    26    13    60 1   
    27    14    15 2   
    28    14    16 1   
    29    16    17 1   
    30    17    18 1   
    31    17    19 1   
    32    17    20 1   
    33    18    61 1   
    34    18    62 1   
    35    18    63 1   
    36    19    64 1   
    37    19    65 1   
    38    19    66 1   
    39    20    67 1   
    40    20    68 1   
    41    20    69 1   
    42    21    22 2   
    43    21    23 1   
    44    23    24 1   
    45    23    70 1   
    46    24    25 1   
    47    24    32 1   
    48    24    71 1   
    49    25    26 1   
    50    25    72 1   
    51    25    73 1   
    52    26    27 ar  
    53    26    31 ar  
    54    27    28 ar  
    55    27    74 1   
    56    28    29 ar  
    57    28    76 1   
    58    29    30 ar  
    59    29    77 1   
    60    30    31 ar  
    61    30    78 1   
    62    31    75 1   
    63    32    33 2   
    64    32    34 1   
    65    34    35 1   
    66    34    79 1   
    67    35    36 1   
    68    35    43 1   
    69    35    80 1   
    70    36    37 1   
    71    36    81 1   
    72    36    82 1   
    73    37    38 1   
    74    37    41 1   
    75    37    85 1   
    76    38    39 1   
    77    38    86 1   
    78    38    87 1   
    79    39    40 1   
    80    39    88 1   
    81    39    89 1   
    82    40    41 1   
    83    40    90 1   
    84    41    42 2   
    85    43    44 1   
    86    43    83 1   
    87    43    84 1   
    88    44    45 1   
    89    44    91 1   
    90    44    92 1   
    91    45    46 2   
    92    45    47 1   
    93    47    48 1   
    94    48    49 1   
    95    48    93 1   
    96    48    94 1   
    97    49    95 1   
    98    49    96 1   
    99    49    97 1   
@<TRIPOS>SUBSTRUCTURE
     1 G83         1 TEMP              0 ****  ****    0 ROOT
