@<TRIPOS>MOLECULE
G83
   97    99     1     0     0
SMALL
abcg2


@<TRIPOS>ATOM
      1 O19          3.8310    -0.6140     2.0360 o          1 G83      -0.538000
      2 C17          4.1260    -0.3060     0.9010 c          1 G83       0.645100
      3 O15          5.1850    -0.7890     0.2430 os         1 G83      -0.456100
      4 C13          5.9920    -1.7630     0.9050 c3         1 G83       0.231900
      5 C4           6.8390    -2.4290    -0.1370 ca         1 G83      -0.099300
      6 C6           8.2250    -2.4230    -0.0350 ca         1 G83      -0.088500
      7 C8           9.0070    -3.0620    -0.9900 ca         1 G83      -0.114500
      8 C10          8.4070    -3.7060    -2.0610 ca         1 G83      -0.101000
      9 C1           7.0200    -3.7110    -2.1730 ca         1 G83      -0.114500
     10 C2           6.2420    -3.0790    -1.2160 ca         1 G83      -0.088500
     11 N21          3.4620     0.5810     0.1300 ns         1 G83      -0.477900
     12 C23          2.1660     1.0890     0.4900 c3         1 G83       0.053700
     13 C25          2.0550     2.5660     0.1300 c3         1 G83      -0.151400
     14 C14          2.9850     3.4200     0.9610 c          1 G83       0.608100
     15 O1           3.3830     3.1020     2.0540 o          1 G83      -0.483000
     16 O2           3.2570     4.5530     0.3420 os         1 G83      -0.464100
     17 C29          4.0560     5.6210     0.9350 c3         1 G83       0.207000
     18 C12          5.4840     5.1530     1.1860 c3         1 G83      -0.107767
     19 C43          4.0450     6.6990    -0.1410 c3         1 G83      -0.107767
     20 C45          3.4010     6.1500     2.2050 c3         1 G83      -0.107767
     21 C31          1.0770     0.3120    -0.2520 c          1 G83       0.580100
     22 O35          1.2090     0.0180    -1.4270 o          1 G83      -0.602100
     23 N33         -0.0080     0.0330     0.4850 ns         1 G83      -0.485900
     24 C37         -1.1340    -0.7220     0.0020 c3         1 G83       0.027700
     25 C41         -1.1660    -2.1300     0.6280 c3         1 G83      -0.043100
     26 C51          0.0750    -2.9060     0.2950 ca         1 G83      -0.088300
     27 C53          1.1920    -2.8610     1.1240 ca         1 G83      -0.098000
     28 C7           2.3520    -3.5460     0.7870 ca         1 G83      -0.107000
     29 C9           2.4130    -4.2840    -0.3860 ca         1 G83      -0.110000
     30 C11          1.3050    -4.3310    -1.2240 ca         1 G83      -0.107000
     31 C55          0.1470    -3.6460    -0.8840 ca         1 G83      -0.098000
     32 C39         -2.4220     0.0170     0.3530 c          1 G83       0.588100
     33 O47         -2.5550     0.5490     1.4460 o          1 G83      -0.596100
     34 N49         -3.3630    -0.0220    -0.5970 ns         1 G83      -0.504900
     35 C57         -4.6870     0.5680    -0.4890 c3         1 G83       0.108700
     36 C59         -4.8070     1.6690    -1.5480 c3         1 G83      -0.068400
     37 C61         -6.1520     2.3740    -1.6640 c5         1 G83      -0.152700
     38 C73         -6.1990     3.4060    -2.7930 c5         1 G83      -0.092400
     39 C71         -7.2460     4.4160    -2.3260 c5         1 G83       0.100000
     40 N69         -7.1430     4.3130    -0.8850 ns         1 G83      -0.513900
     41 C65         -6.5730     3.1800    -0.4440 c          1 G83       0.561000
     42 O66         -6.4400     2.8570     0.7270 o          1 G83      -0.550000
     43 C63         -5.7630    -0.5080    -0.6140 c3         1 G83      -0.078400
     44 C82         -5.6250    -1.5860     0.4480 c3         1 G83      -0.137400
     45 C84         -6.7200    -2.6170     0.3910 c          1 G83       0.594100
     46 O88         -7.5850    -2.6630    -0.4480 o          1 G83      -0.497000
     47 O86         -6.6190    -3.4890     1.3860 os         1 G83      -0.452100
     48 C3          -7.5920    -4.5420     1.4650 c3         1 G83       0.167600
     49 C5          -7.2730    -5.3750     2.6820 c3         1 G83      -0.097100
     50 H21          3.7280     0.6500    -0.8420 hn         1 G83       0.336500
     51 H131         6.6140    -1.2850     1.6660 h1         1 G83       0.056700
     52 H132         5.3610    -2.4980     1.4090 h1         1 G83       0.056700
     53 H6           8.7000    -1.9160     0.7970 ha         1 G83       0.117000
     54 H2           5.1620    -3.0910    -1.3120 ha         1 G83       0.117000
     55 H8          10.0850    -3.0510    -0.8960 ha         1 G83       0.114000
     56 H10          9.0130    -4.2010    -2.8090 ha         1 G83       0.113000
     57 H1           6.5460    -4.2110    -3.0080 ha         1 G83       0.114000
     58 H23          2.0440     0.9740     1.5670 h1         1 G83       0.110700
     59 H251         2.2390     2.7210    -0.9350 hc         1 G83       0.085700
     60 H252         1.0340     2.9160     0.3190 hc         1 G83       0.085700
     61 H121         5.9260     4.7340     0.2800 hc         1 G83       0.049256
     62 H122         6.0900     6.0110     1.4810 hc         1 G83       0.049256
     63 H123         5.5510     4.4140     1.9810 hc         1 G83       0.049256
     64 H431         3.0290     7.0270    -0.3660 hc         1 G83       0.049256
     65 H432         4.6070     7.5670     0.2020 hc         1 G83       0.049256
     66 H433         4.5060     6.3460    -1.0640 hc         1 G83       0.049256
     67 H451         3.4320     5.4350     3.0240 hc         1 G83       0.049256
     68 H452         3.9340     7.0460     2.5260 hc         1 G83       0.049256
     69 H453         2.3630     6.4310     2.0250 hc         1 G83       0.049256
     70 H33         -0.0160     0.2920     1.4600 hn         1 G83       0.338500
     71 H37         -1.0280    -0.8190    -1.0790 h1         1 G83       0.088700
     72 H411        -1.2810    -2.0340     1.7100 hc         1 G83       0.061200
     73 H412        -2.0510    -2.6540     0.2590 hc         1 G83       0.061200
     74 H53          1.1590    -2.2900     2.0440 ha         1 G83       0.112500
     75 H55         -0.7130    -3.6860    -1.5420 ha         1 G83       0.112500
     76 H7           3.2050    -3.5080     1.4520 ha         1 G83       0.114500
     77 H9           3.3140    -4.8260    -0.6450 ha         1 G83       0.111000
     78 H11          1.3410    -4.9060    -2.1400 ha         1 G83       0.114500
     79 H49         -3.1210    -0.4440    -1.4820 hn         1 G83       0.310500
     80 H57         -4.7520     1.0140     0.5020 h1         1 G83       0.111700
     81 H591        -4.0290     2.4150    -1.3590 hc         1 G83       0.048200
     82 H592        -4.5790     1.2350    -2.5270 hc         1 G83       0.048200
     83 H631        -6.7400    -0.0340    -0.5160 hc         1 G83       0.058700
     84 H632        -5.7310    -0.9510    -1.6140 hc         1 G83       0.058700
     85 H61         -6.9470     1.6350    -1.8280 hc         1 G83       0.078700
     86 H731        -5.2270     3.8970    -2.8820 hc         1 G83       0.058200
     87 H732        -6.4430     2.9700    -3.7600 hc         1 G83       0.058200
     88 H711        -7.0350     5.4300    -2.6630 h1         1 G83       0.046200
     89 H712        -8.2490     4.1470    -2.6700 h1         1 G83       0.046200
     90 H69         -7.6070     4.9540    -0.2600 hn         1 G83       0.329500
     91 H821        -4.6690    -2.1120     0.3560 hc         1 G83       0.078200
     92 H822        -5.6180    -1.1410     1.4480 hc         1 G83       0.078200
     93 H31C        -8.5940    -4.1130     1.5380 h1         1 G83       0.047200
     94 H32C        -7.5540    -5.1480     0.5570 h1         1 G83       0.047200
     95 H51C        -8.0050    -6.1780     2.7680 hc         1 G83       0.047033
     96 H52C        -6.2850    -5.8300     2.6100 hc         1 G83       0.047033
     97 H53C        -7.3170    -4.7840     3.5970 hc         1 G83       0.047033
@<TRIPOS>BOND
     1     1     2 2   
     2     2     3 1   
     3     2    11 1   
     4     3     4 1   
     5     4     5 1   
     6     4    51 1   
     7     4    52 1   
     8     5     6 ar  
     9     5    10 ar  
    10     6     7 ar  
    11     6    53 1   
    12     7     8 ar  
    13     7    55 1   
    14     8     9 ar  
    15     8    56 1   
    16     9    10 ar  
    17     9    57 1   
    18    10    54 1   
    19    11    12 1   
    20    11    50 1   
    21    12    13 1   
    22    12    21 1   
    23    12    58 1   
    24    13    14 1   
    25    13    59 1   
    26    13    60 1   
    27    14    15 2   
    28    14    16 1   
    29    16    17 1   
    30    17    18 1   
    31    17    19 1   
    32    17    20 1   
    33    18    61 1   
    34    18    62 1   
    35    18    63 1   
    36    19    64 1   
    37    19    65 1   
    38    19    66 1   
    39    20    67 1   
    40    20    68 1   
    41    20    69 1   
    42    21    22 2   
    43    21    23 1   
    44    23    24 1   
    45    23    70 1   
    46    24    25 1   
    47    24    32 1   
    48    24    71 1   
    49    25    26 1   
    50    25    72 1   
    51    25    73 1   
    52    26    27 ar  
    53    26    31 ar  
    54    27    28 ar  
    55    27    74 1   
    56    28    29 ar  
    57    28    76 1   
    58    29    30 ar  
    59    29    77 1   
    60    30    31 ar  
    61    30    78 1   
    62    31    75 1   
    63    32    33 2   
    64    32    34 1   
    65    34    35 1   
    66    34    79 1   
    67    35    36 1   
    68    35    43 1   
    69    35    80 1   
    70    36    37 1   
    71    36    81 1   
    72    36    82 1   
    73    37    38 1   
    74    37    41 1   
    75    37    85 1   
    76    38    39 1   
    77    38    86 1   
    78    38    87 1   
    79    39    40 1   
    80    39    88 1   
    81    39    89 1   
    82    40    41 1   
    83    40    90 1   
    84    41    42 2   
    85    43    44 1   
    86    43    83 1   
    87    43    84 1   
    88    44    45 1   
    89    44    91 1   
    90    44    92 1   
    91    45    46 2   
    92    45    47 1   
    93    47    48 1   
    94    48    49 1   
    95    48    93 1   
    96    48    94 1   
    97    49    95 1   
    98    49    96 1   
    99    49    97 1   
@<TRIPOS>SUBSTRUCTURE
     1 G83         1 TEMP              0 ****  ****    0 ROOT
