@<TRIPOS>MOLECULE
G84
  109   113     1     0     0
SMALL
No Charge or Current Charge


@<TRIPOS>ATOM
      1 C1           8.9990     1.1000     0.4330 cp         1 G84      -0.037500
      2 C2           8.5820    -0.1800     0.8070 ca         1 G84      -0.086300
      3 C3          -8.0500     4.9690    -1.1510 c3         1 G84       0.167600
      4 C4           7.0850    -0.0900     1.1470 c5         1 G84       0.018900
      5 C5          -7.3080     6.2260    -0.6710 c3         1 G84      -0.098100
      6 C6           6.7230     1.3950     0.9370 ca         1 G84      -0.086300
      7 C7           1.4970     2.0240    -2.1430 ca         1 G84      -0.105500
      8 C8           7.8840     2.0440     0.5100 cp         1 G84      -0.037500
      9 C9           1.9650     2.9750    -1.2200 ca         1 G84      -0.108000
     10 C10         10.3390     1.3200     0.0570 ca         1 G84      -0.085500
     11 C11          1.1330     3.4010    -0.1710 ca         1 G84      -0.105500
     12 C12          0.4760    -5.2550    -2.2240 c3         1 G84      -0.109433
     13 C13          6.2350    -1.0510     0.2830 c3         1 G84       0.195600
     14 C14          0.7560    -3.7200     1.2340 c3         1 G84      -0.099100
     15 C15         11.2370     0.2310     0.0660 ca         1 G84      -0.109500
     16 O15          4.8760    -0.9930     0.7510 os         1 G84      -0.464100
     17 C16         10.7980    -1.0580     0.4470 ca         1 G84      -0.110500
     18 C17          3.9200    -1.5940    -0.0030 c          1 G84       0.644100
     19 C18          9.4560    -1.2760     0.8230 ca         1 G84      -0.088500
     20 C19          7.8550     3.4240     0.2250 ca         1 G84      -0.085500
     21 O19          4.1000    -2.1830    -1.0560 o          1 G84      -0.553000
     22 C20          6.6420     4.1270     0.3790 ca         1 G84      -0.109500
     23 C21          5.4750     3.4560     0.8140 ca         1 G84      -0.110500
     24 N21          2.7050    -1.3090     0.5410 ns         1 G84      -0.491900
     25 C22          5.5070     2.0760     1.0990 ca         1 G84      -0.088500
     26 C23          1.3950    -1.5850    -0.0920 c3         1 G84       0.027700
     27 C25          1.0510    -3.1030    -0.1480 c3         1 G84       0.164300
     28 O27         -0.1580    -3.2770    -0.9470 os         1 G84      -0.481000
     29 C29         -0.0610    -3.8030    -2.2930 c3         1 G84       0.190000
     30 C31          0.2950    -0.7170     0.5800 c          1 G84       0.604100
     31 N33         -0.9580    -0.8060     0.0170 ns         1 G84      -0.482900
     32 O35          0.5230     0.0220     1.5320 o          1 G84      -0.618100
     33 C37         -2.0670     0.1450     0.2500 c3         1 G84       0.030700
     34 C39         -3.4380    -0.5850     0.2220 c          1 G84       0.591100
     35 C41         -2.0250     1.3030    -0.7870 c3         1 G84      -0.042100
     36 C43          0.8380    -2.8860    -3.1590 c3         1 G84      -0.109433
     37 C45         -1.5100    -3.7900    -2.8250 c3         1 G84      -0.109433
     38 O47         -3.5800    -1.7330    -0.1790 o          1 G84      -0.595100
     39 N49         -4.5030     0.1620     0.6810 ns         1 G84      -0.508900
     40 C51         -0.6370     1.9150    -0.9580 ca         1 G84      -0.080300
     41 C53          0.1990     1.4980    -2.0140 ca         1 G84      -0.099000
     42 C55         -0.1630     2.8730    -0.0400 ca         1 G84      -0.099000
     43 C57         -5.8910    -0.3040     0.7340 c3         1 G84       0.110700
     44 C59         -6.1610    -0.9660     2.1130 c3         1 G84      -0.076400
     45 C61         -7.5450    -1.6610     2.2920 c5         1 G84      -0.151700
     46 C63         -6.8610     0.8570     0.3940 c3         1 G84      -0.082400
     47 C65         -7.7590    -2.7590     1.2440 c          1 G84       0.562000
     48 O66         -8.2400    -2.6760     0.1260 o          1 G84      -0.553000
     49 N69         -7.5310    -3.9470     1.8820 ns         1 G84      -0.512900
     50 C71         -7.0990    -3.8210     3.2730 c5         1 G84       0.100000
     51 C73         -7.6890    -2.4290     3.6360 c5         1 G84      -0.093400
     52 C82         -6.5980     1.5160    -0.9870 c3         1 G84      -0.136400
     53 C84         -7.6320     2.6020    -1.2880 c          1 G84       0.594100
     54 O86         -7.1790     3.8460    -0.9330 os         1 G84      -0.455100
     55 O88         -8.7300     2.3770    -1.7770 o          1 G84      -0.492000
     56 H3          -8.9840     4.8560    -0.5850 h1         1 G84       0.047700
     57 H3A         -8.2960     5.0730    -2.2160 h1         1 G84       0.047700
     58 H4           6.9200    -0.3810     2.1900 hc         1 G84       0.089700
     59 H5          -7.9340     7.1140    -0.8160 hc         1 G84       0.046700
     60 H5A         -7.0650     6.1470     0.3950 hc         1 G84       0.046700
     61 H5B         -6.3780     6.3640    -1.2340 hc         1 G84       0.046700
     62 H9           2.9690     3.3800    -1.3190 ha         1 G84       0.109000
     63 H10         10.6770     2.3110    -0.2360 ha         1 G84       0.116500
     64 H11          1.4950     4.1360     0.5450 ha         1 G84       0.113000
     65 H12         -0.0840    -5.8410    -1.4840 hc         1 G84       0.045478
     66 H12A         0.3690    -5.7490    -3.1970 hc         1 G84       0.045478
     67 H12B         1.5380    -5.2860    -1.9570 hc         1 G84       0.045478
     68 H13          6.3070    -0.7340    -0.7670 h1         1 G84       0.060200
     69 H13A         6.6280    -2.0720     0.3650 h1         1 G84       0.060200
     70 H14         -0.1240    -3.2580     1.6970 hc         1 G84       0.045033
     71 H14A         0.5680    -4.7950     1.1360 hc         1 G84       0.045033
     72 H14B         1.6110    -3.5870     1.9080 hc         1 G84       0.045033
     73 H15         12.2750     0.3850    -0.2220 ha         1 G84       0.112500
     74 H16         11.5000    -1.8890     0.4500 ha         1 G84       0.112500
     75 H18          9.1120    -2.2640     1.1180 ha         1 G84       0.120500
     76 H19          8.7530     3.9400    -0.1080 ha         1 G84       0.116500
     77 H20          6.6040     5.1920     0.1630 ha         1 G84       0.112500
     78 H21          4.5450     4.0090     0.9300 ha         1 G84       0.112500
     79 HN21         2.7230    -0.7550     1.3900 hn         1 G84       0.356500
     80 H22          4.6120     1.5570     1.4340 ha         1 G84       0.120500
     81 H23          1.4610    -1.2170    -1.1220 h1         1 G84       0.083700
     82 H25          1.9260    -3.6340    -0.5630 h1         1 G84       0.064700
     83 HN33        -1.0840    -1.5530    -0.6630 hn         1 G84       0.357500
     84 H37         -1.9570     0.5720     1.2550 h1         1 G84       0.083700
     85 H41         -2.3790     0.9220    -1.7540 hc         1 G84       0.058200
     86 H41A        -2.7420     2.0800    -0.4930 hc         1 G84       0.058200
     87 H43          0.8240    -3.2180    -4.2040 hc         1 G84       0.045478
     88 H43A         0.4810    -1.8500    -3.1330 hc         1 G84       0.045478
     89 H43B         1.8810    -2.9080    -2.8240 hc         1 G84       0.045478
     90 H45         -2.1620    -4.4060    -2.1930 hc         1 G84       0.045478
     91 H45A        -1.9120    -2.7690    -2.8350 hc         1 G84       0.045478
     92 H45B        -1.5570    -4.1840    -3.8480 hc         1 G84       0.045478
     93 HN49        -4.2990     1.0990     1.0090 hn         1 G84       0.311500
     94 H53         -0.1500     0.7560    -2.7270 ha         1 G84       0.108000
     95 H55         -0.7950     3.1980     0.7840 ha         1 G84       0.108000
     96 H57         -6.0170    -1.0720    -0.0420 h1         1 G84       0.101700
     97 H59         -5.3680    -1.7020     2.2910 hc         1 G84       0.048700
     98 H59A        -6.0380    -0.2040     2.8930 hc         1 G84       0.048700
     99 H61         -8.3140    -0.8930     2.1670 hc         1 G84       0.086700
    100 H63         -7.8900     0.4790     0.3980 hc         1 G84       0.063700
    101 H63A        -6.8020     1.6220     1.1790 hc         1 G84       0.063700
    102 HN69        -7.6920    -4.8130     1.3820 hn         1 G84       0.330500
    103 H71         -7.4970    -4.6160     3.9170 h1         1 G84       0.045700
    104 H71A        -6.0030    -3.8280     3.3520 h1         1 G84       0.045700
    105 H73         -7.1700    -1.9500     4.4740 hc         1 G84       0.059200
    106 H73A        -8.7450    -2.5230     3.9170 hc         1 G84       0.059200
    107 H82         -5.6030     1.9750    -0.9630 hc         1 G84       0.076200
    108 H82A        -6.6490     0.7470    -1.7660 hc         1 G84       0.076200
    109 H7           2.1390     1.6930    -2.9550 ha         1 G84       0.113000
@<TRIPOS>BOND
     1     1     2 ar  
     2     1     8 1   
     3     1    10 ar  
     4     2     4 1   
     5     2    19 ar  
     6     3     5 1   
     7     3    54 1   
     8     3    56 1   
     9     3    57 1   
    10     4     6 1   
    11     4    13 1   
    12     4    58 1   
    13     5    59 1   
    14     5    60 1   
    15     5    61 1   
    16     6     8 ar  
    17     6    25 ar  
    18     7     9 ar  
    19     7    41 ar  
    20     7   109 1   
    21     8    20 ar  
    22     9    11 ar  
    23     9    62 1   
    24    10    15 ar  
    25    10    63 1   
    26    11    42 ar  
    27    11    64 1   
    28    12    29 1   
    29    12    65 1   
    30    12    66 1   
    31    12    67 1   
    32    13    16 1   
    33    13    68 1   
    34    13    69 1   
    35    14    27 1   
    36    14    70 1   
    37    14    71 1   
    38    14    72 1   
    39    15    17 ar  
    40    15    73 1   
    41    16    18 1   
    42    17    19 ar  
    43    17    74 1   
    44    18    21 2   
    45    18    24 1   
    46    19    75 1   
    47    20    22 ar  
    48    20    76 1   
    49    22    23 ar  
    50    22    77 1   
    51    23    25 ar  
    52    23    78 1   
    53    24    26 1   
    54    24    79 1   
    55    25    80 1   
    56    26    27 1   
    57    26    30 1   
    58    26    81 1   
    59    27    28 1   
    60    27    82 1   
    61    28    29 1   
    62    29    36 1   
    63    29    37 1   
    64    30    31 1   
    65    30    32 2   
    66    31    33 1   
    67    31    83 1   
    68    33    34 1   
    69    33    35 1   
    70    33    84 1   
    71    34    38 2   
    72    34    39 1   
    73    35    40 1   
    74    35    85 1   
    75    35    86 1   
    76    36    87 1   
    77    36    88 1   
    78    36    89 1   
    79    37    90 1   
    80    37    91 1   
    81    37    92 1   
    82    39    43 1   
    83    39    93 1   
    84    40    41 ar  
    85    40    42 ar  
    86    41    94 1   
    87    42    95 1   
    88    43    44 1   
    89    43    46 1   
    90    43    96 1   
    91    44    45 1   
    92    44    97 1   
    93    44    98 1   
    94    45    47 1   
    95    45    51 1   
    96    45    99 1   
    97    46    52 1   
    98    46   100 1   
    99    46   101 1   
   100    47    48 2   
   101    47    49 1   
   102    49    50 1   
   103    49   102 1   
   104    50    51 1   
   105    50   103 1   
   106    50   104 1   
   107    51   105 1   
   108    51   106 1   
   109    52    53 1   
   110    52   107 1   
   111    52   108 1   
   112    53    54 1   
   113    53    55 2   
@<TRIPOS>SUBSTRUCTURE
     1 G84         1 TEMP              0 ****  ****    0 ROOT
