@<TRIPOS>MOLECULE
G84
  109   113     1     0     0
SMALL
abcg2


@<TRIPOS>ATOM
      1 C1           8.8940     0.8320    -0.0460 cp         1 G84      -0.037500
      2 C2           8.3860    -0.2750     0.6390 ca         1 G84      -0.086300
      3 C3          -7.6150     4.7600    -1.7400 c3         1 G84       0.167600
      4 C4           6.9410    -0.0490     1.0130 c5         1 G84       0.018900
      5 C5          -6.8310     5.6420    -2.6800 c3         1 G84      -0.098100
      6 C6           6.6960     1.3530     0.5020 ca         1 G84      -0.086300
      7 C7           1.5240     2.9890    -0.6090 ca         1 G84      -0.105500
      8 C8           7.8450     1.8440    -0.1320 cp         1 G84      -0.037500
      9 C9           1.6400     3.7780     0.5270 ca         1 G84      -0.108000
     10 C10         10.2050     0.8420    -0.5040 ca         1 G84      -0.085500
     11 C11          0.5470     3.9340     1.3700 ca         1 G84      -0.105500
     12 C12          0.4540    -5.1510    -1.9460 c3         1 G84      -0.109433
     13 C13          6.0610    -1.0930     0.3380 c3         1 G84       0.195600
     14 C14          0.6030    -3.4160     1.3200 c3         1 G84      -0.099100
     15 C15         11.0010    -0.2710    -0.2680 ca         1 G84      -0.109500
     16 O15          4.7260    -0.9070     0.7950 os         1 G84      -0.464100
     17 C16         10.4960    -1.3730     0.4170 ca         1 G84      -0.110500
     18 C17          3.7240    -1.3370     0.0180 c          1 G84       0.644100
     19 C18          9.1810    -1.3820     0.8750 ca         1 G84      -0.088500
     20 C19          7.8620     3.1090    -0.7030 ca         1 G84      -0.085500
     21 O19          3.8780    -1.8340    -1.0790 o          1 G84      -0.553000
     22 C20          6.7140     3.8860    -0.6300 ca         1 G84      -0.109500
     23 C21          5.5740     3.4050     0.0070 ca         1 G84      -0.110500
     24 N21          2.5410    -1.1440     0.6230 ns         1 G84      -0.491900
     25 C22          5.5560     2.1350     0.5780 ca         1 G84      -0.088500
     26 C23          1.2910    -1.3730    -0.0490 c3         1 G84       0.027700
     27 C25          0.9120    -2.8740    -0.0650 c3         1 G84       0.164300
     28 O27         -0.2130    -3.0600    -0.8950 os         1 G84      -0.481000
     29 C29         -0.0460    -3.7230    -2.1540 c3         1 G84       0.190000
     30 C31          0.2300    -0.5170     0.6490 c          1 G84       0.604100
     31 N33         -0.9370    -0.4380    -0.0030 ns         1 G84      -0.482900
     32 O35          0.4600     0.0370     1.7120 o          1 G84      -0.618100
     33 C37         -2.0380     0.3790     0.4310 c3         1 G84       0.030700
     34 C39         -3.3460    -0.3500     0.1410 c          1 G84       0.591100
     35 C41         -2.0460     1.7400    -0.3010 c3         1 G84      -0.042100
     36 C43          0.8980    -2.9490    -3.0710 c3         1 G84      -0.109433
     37 C45         -1.4460    -3.7470    -2.7550 c3         1 G84      -0.109433
     38 O47         -3.4540    -1.0900    -0.8250 o          1 G84      -0.595100
     39 N49         -4.3380    -0.0550     0.9910 ns         1 G84      -0.508900
     40 C51         -0.7760     2.4960    -0.0500 ca         1 G84      -0.080300
     41 C53          0.3200     2.3590    -0.8980 ca         1 G84      -0.099000
     42 C55         -0.6480     3.2950     1.0830 ca         1 G84      -0.099000
     43 C57         -5.7090    -0.5250     0.8700 c3         1 G84       0.110700
     44 C59         -6.0220    -1.4200     2.0720 c3         1 G84      -0.076400
     45 C61         -7.4440    -1.9880     2.1510 c5         1 G84      -0.151700
     46 C63         -6.6690     0.6560     0.7400 c3         1 G84      -0.082400
     47 C65         -7.7670    -2.8390     0.9310 c          1 G84       0.562000
     48 O66         -8.0400    -2.4310    -0.1880 o          1 G84      -0.553000
     49 N69         -7.6740    -4.1270     1.2970 ns         1 G84      -0.512900
     50 C71         -7.2970    -4.3430     2.6770 c5         1 G84       0.100000
     51 C73         -7.5910    -2.9800     3.3100 c5         1 G84      -0.093400
     52 C82         -6.3270     1.5510    -0.4390 c3         1 G84      -0.136400
     53 C84         -7.2810     2.7050    -0.6010 c          1 G84       0.594100
     54 O86         -6.8210     3.5930    -1.4730 os         1 G84      -0.455100
     55 O88         -8.3340     2.8220    -0.0240 o          1 G84      -0.492000
     56 H3          -7.8290     5.2820    -0.8050 h1         1 G84       0.047700
     57 H3A         -8.5680     4.4630    -2.1840 h1         1 G84       0.047700
     58 H4           6.8060    -0.1100     2.0990 hc         1 G84       0.089700
     59 H5          -7.4080     6.5410    -2.8950 hc         1 G84       0.046700
     60 H5A         -5.8830     5.9500    -2.2400 hc         1 G84       0.046700
     61 H5B         -6.6290     5.1410    -3.6270 hc         1 G84       0.046700
     62 H9           2.5720     4.2780     0.7540 ha         1 G84       0.109000
     63 H10         10.6050     1.6980    -1.0340 ha         1 G84       0.116500
     64 H11          0.6290     4.5560     2.2530 ha         1 G84       0.113000
     65 H12         -0.2030    -5.6990    -1.2670 hc         1 G84       0.045478
     66 H12A         0.4740    -5.6860    -2.8960 hc         1 G84       0.045478
     67 H12B         1.4670    -5.1810    -1.5400 hc         1 G84       0.045478
     68 H13          6.1290    -0.9890    -0.7470 h1         1 G84       0.060200
     69 H13A         6.3930    -2.0990     0.6060 h1         1 G84       0.060200
     70 H14         -0.2950    -2.9590     1.7410 hc         1 G84       0.045033
     71 H14A         0.4370    -4.4920     1.2720 hc         1 G84       0.045033
     72 H14B         1.4310    -3.2400     2.0050 hc         1 G84       0.045033
     73 H15         12.0260    -0.2820    -0.6160 ha         1 G84       0.112500
     74 H16         11.1340    -2.2290     0.5970 ha         1 G84       0.112500
     75 H18          8.7990    -2.2430     1.4090 ha         1 G84       0.120500
     76 H19          8.7500     3.4880    -1.1930 ha         1 G84       0.116500
     77 H20          6.7050     4.8760    -1.0670 ha         1 G84       0.112500
     78 H21          4.6950     4.0330     0.0580 ha         1 G84       0.112500
     79 HN21         2.5020    -0.6590     1.5080 hn         1 G84       0.356500
     80 H22          4.6620     1.7790     1.0730 ha         1 G84       0.120500
     81 H23          1.3730    -1.0400    -1.0890 h1         1 G84       0.083700
     82 H25          1.7850    -3.4050    -0.4570 h1         1 G84       0.064700
     83 HN33        -1.0860    -1.0320    -0.8070 hn         1 G84       0.357500
     84 H37         -1.9380     0.5560     1.5040 h1         1 G84       0.083700
     85 H41         -2.1870     1.5620    -1.3700 hc         1 G84       0.058200
     86 H41A        -2.9050     2.3210     0.0450 hc         1 G84       0.058200
     87 H43          0.9640    -3.4420    -4.0420 hc         1 G84       0.045478
     88 H43A         0.5360    -1.9320    -3.2400 hc         1 G84       0.045478
     89 H43B         1.9110    -2.8880    -2.6730 hc         1 G84       0.045478
     90 H45         -2.1400    -4.2990    -2.1170 hc         1 G84       0.045478
     91 H45A        -1.8370    -2.7360    -2.8850 hc         1 G84       0.045478
     92 H45B        -1.4290    -4.2310    -3.7320 hc         1 G84       0.045478
     93 HN49        -4.1290     0.5490     1.7720 hn         1 G84       0.311500
     94 H53          0.2360     1.7490    -1.7900 ha         1 G84       0.108000
     95 H55         -1.4940     3.4140     1.7520 ha         1 G84       0.108000
     96 H57         -5.7540    -1.1150    -0.0450 h1         1 G84       0.101700
     97 H59         -5.3000    -2.2430     2.0790 hc         1 G84       0.048700
     98 H59A        -5.8480    -0.8500     2.9900 hc         1 G84       0.048700
     99 H61         -8.1650    -1.1730     2.2310 hc         1 G84       0.086700
    100 H63         -7.6790     0.2640     0.6160 hc         1 G84       0.063700
    101 H63A        -6.6660     1.2360     1.6680 hc         1 G84       0.063700
    102 HN69        -7.7470    -4.8780     0.6290 hn         1 G84       0.330500
    103 H71         -7.8850    -5.1450     3.1230 h1         1 G84       0.045700
    104 H71A        -6.2420    -4.6190     2.7610 h1         1 G84       0.045700
    105 H73         -6.9270    -2.7620     4.1460 hc         1 G84       0.059200
    106 H73A        -8.6150    -2.9630     3.6860 hc         1 G84       0.059200
    107 H82         -5.3150     1.9520    -0.3510 hc         1 G84       0.076200
    108 H82A        -6.3360     0.9750    -1.3710 hc         1 G84       0.076200
    109 H7           2.3690     2.8650    -1.2740 ha         1 G84       0.113000
@<TRIPOS>BOND
     1     1     2 ar  
     2     1     8 1   
     3     1    10 ar  
     4     2     4 1   
     5     2    19 ar  
     6     3     5 1   
     7     3    54 1   
     8     3    56 1   
     9     3    57 1   
    10     4     6 1   
    11     4    13 1   
    12     4    58 1   
    13     5    59 1   
    14     5    60 1   
    15     5    61 1   
    16     6     8 ar  
    17     6    25 ar  
    18     7     9 ar  
    19     7    41 ar  
    20     7   109 1   
    21     8    20 ar  
    22     9    11 ar  
    23     9    62 1   
    24    10    15 ar  
    25    10    63 1   
    26    11    42 ar  
    27    11    64 1   
    28    12    29 1   
    29    12    65 1   
    30    12    66 1   
    31    12    67 1   
    32    13    16 1   
    33    13    68 1   
    34    13    69 1   
    35    14    27 1   
    36    14    70 1   
    37    14    71 1   
    38    14    72 1   
    39    15    17 ar  
    40    15    73 1   
    41    16    18 1   
    42    17    19 ar  
    43    17    74 1   
    44    18    21 2   
    45    18    24 1   
    46    19    75 1   
    47    20    22 ar  
    48    20    76 1   
    49    22    23 ar  
    50    22    77 1   
    51    23    25 ar  
    52    23    78 1   
    53    24    26 1   
    54    24    79 1   
    55    25    80 1   
    56    26    27 1   
    57    26    30 1   
    58    26    81 1   
    59    27    28 1   
    60    27    82 1   
    61    28    29 1   
    62    29    36 1   
    63    29    37 1   
    64    30    31 1   
    65    30    32 2   
    66    31    33 1   
    67    31    83 1   
    68    33    34 1   
    69    33    35 1   
    70    33    84 1   
    71    34    38 2   
    72    34    39 1   
    73    35    40 1   
    74    35    85 1   
    75    35    86 1   
    76    36    87 1   
    77    36    88 1   
    78    36    89 1   
    79    37    90 1   
    80    37    91 1   
    81    37    92 1   
    82    39    43 1   
    83    39    93 1   
    84    40    41 ar  
    85    40    42 ar  
    86    41    94 1   
    87    42    95 1   
    88    43    44 1   
    89    43    46 1   
    90    43    96 1   
    91    44    45 1   
    92    44    97 1   
    93    44    98 1   
    94    45    47 1   
    95    45    51 1   
    96    45    99 1   
    97    46    52 1   
    98    46   100 1   
    99    46   101 1   
   100    47    48 2   
   101    47    49 1   
   102    49    50 1   
   103    49   102 1   
   104    50    51 1   
   105    50   103 1   
   106    50   104 1   
   107    51   105 1   
   108    51   106 1   
   109    52    53 1   
   110    52   107 1   
   111    52   108 1   
   112    53    54 1   
   113    53    55 2   
@<TRIPOS>SUBSTRUCTURE
     1 G84         1 TEMP              0 ****  ****    0 ROOT
