@<TRIPOS>MOLECULE
G85
   95    97     1     0     0
SMALL
No Charge or Current Charge


@<TRIPOS>ATOM
      1 C17         -5.1620    -0.6680     1.0170 c          1 G85       0.642100
      2 O19         -5.3390    -1.0120     2.1750 o          1 G85      -0.562000
      3 O15         -6.1030    -0.6540     0.0360 os         1 G85      -0.452100
      4 C13         -7.4240    -1.1020     0.3790 c3         1 G85       0.231900
      5 C4          -8.3010    -1.0070    -0.8630 ca         1 G85      -0.100300
      6 C2          -8.3900    -2.0950    -1.7550 ca         1 G85      -0.083500
      7 C1          -9.2000    -2.0070    -2.9010 ca         1 G85      -0.116000
      8 C10         -9.9240    -0.8310    -3.1630 ca         1 G85      -0.098000
      9 C8          -9.8370     0.2570    -2.2780 ca         1 G85      -0.116000
     10 C6          -9.0270     0.1700    -1.1320 ca         1 G85      -0.083500
     11 C31         -1.6900     0.7740     0.4730 c          1 G85       0.610100
     12 N21         -3.9870    -0.2030     0.5080 ns         1 G85      -0.484900
     13 C12         -2.0230    -4.4360     1.0600 c3         1 G85      -0.106433
     14 C45          0.2720    -3.2950     1.2780 c3         1 G85      -0.106433
     15 C43         -0.7110    -3.7660    -1.0150 c3         1 G85      -0.106433
     16 C23         -2.7120    -0.0950     1.2570 c3         1 G85       0.051700
     17 C25         -2.1160    -1.4820     1.6130 c3         1 G85       0.145600
     18 C29         -1.0350    -3.4080     0.4520 c3         1 G85       0.188000
     19 O27         -1.6780    -2.1120     0.3850 os         1 G85      -0.464000
     20 N33         -0.4640     0.9440     1.0860 ns         1 G85      -0.496900
     21 C37          0.7060     1.6160     0.4760 c3         1 G85       0.033700
     22 C39          1.9630     0.7320     0.6850 c          1 G85       0.585100
     23 O47          2.0840    -0.0370     1.6310 o          1 G85      -0.605100
     24 C41          0.9080     3.0330     1.0640 c3         1 G85      -0.041100
     25 C51         -0.3180     3.9260     0.9020 ca         1 G85      -0.084300
     26 C53         -1.2050     4.1210     1.9790 ca         1 G85      -0.100500
     27 C55         -0.5780     4.5550    -0.3310 ca         1 G85      -0.100500
     28 C7          -2.3400     4.9360     1.8240 ca         1 G85      -0.105500
     29 C11         -1.7130     5.3700    -0.4860 ca         1 G85      -0.105500
     30 C9          -2.5940     5.5610     0.5920 ca         1 G85      -0.104000
     31 O86          8.0940     2.2430    -0.0770 os         1 G85      -0.452100
     32 C3           9.3580     2.7710    -0.5100 c3         1 G85       0.167600
     33 C5          10.4470     2.1370     0.3690 c3         1 G85      -0.097100
     34 N49          2.9300     0.8430    -0.2910 ns         1 G85      -0.502900
     35 C57          4.1040    -0.0270    -0.3870 c3         1 G85       0.106700
     36 C59          3.7260    -1.2980    -1.1960 c3         1 G85      -0.080400
     37 C61          4.7450    -2.4750    -1.1560 c5         1 G85      -0.149700
     38 C63          5.3150     0.7450    -0.9680 c3         1 G85      -0.079400
     39 C65          4.9300    -2.9970     0.2740 c          1 G85       0.560000
     40 O66          5.7240    -2.6410     1.1280 o          1 G85      -0.549000
     41 N69          4.1830    -4.1400     0.3630 ns         1 G85      -0.516900
     42 C71          3.4250    -4.4720    -0.8420 c5         1 G85       0.099000
     43 C73          4.2660    -3.7390    -1.9250 c5         1 G85      -0.093400
     44 C82          5.7030     2.0100    -0.1580 c3         1 G85      -0.136400
     45 C84          6.9630     2.6660    -0.7250 c          1 G85       0.594100
     46 O88          6.9530     3.4640    -1.6530 o          1 G85      -0.496000
     47 H13         -7.8500    -0.4810     1.1780 h1         1 G85       0.054700
     48 H13A        -7.4030    -2.1410     0.7340 h1         1 G85       0.054700
     49 H2          -7.8310    -3.0070    -1.5610 ha         1 G85       0.114500
     50 H1          -9.2660    -2.8490    -3.5860 ha         1 G85       0.114000
     51 H10        -10.5510    -0.7640    -4.0500 ha         1 G85       0.112000
     52 H8         -10.3960     1.1680    -2.4810 ha         1 G85       0.114000
     53 H6          -8.9630     1.0190    -0.4540 ha         1 G85       0.114500
     54 HN21        -3.9980     0.0550    -0.4720 hn         1 G85       0.360500
     55 H12         -1.6320    -5.4540     0.9480 hc         1 G85       0.042367
     56 H12A        -2.1790    -4.2610     2.1310 hc         1 G85       0.042367
     57 H12B        -2.9950    -4.3880     0.5540 hc         1 G85       0.042367
     58 H45          0.8540    -4.2210     1.2000 hc         1 G85       0.042367
     59 H45A         0.8960    -2.4730     0.9080 hc         1 G85       0.042367
     60 H45B         0.0680    -3.1280     2.3420 hc         1 G85       0.042367
     61 H43         -1.6270    -3.8080    -1.6170 hc         1 G85       0.042367
     62 H43A        -0.0420    -3.0190    -1.4590 hc         1 G85       0.042367
     63 H43B        -0.2180    -4.7440    -1.0780 hc         1 G85       0.042367
     64 H23         -2.9150     0.4360     2.1950 h1         1 G85       0.087700
     65 H25         -1.2800    -1.3410     2.3090 h1         1 G85       0.041700
     66 H25A        -2.8790    -2.0840     2.1220 h1         1 G85       0.041700
     67 HN33        -0.3270     0.4850     1.9790 hn         1 G85       0.329500
     68 H37          0.5470     1.7000    -0.6070 h1         1 G85       0.088700
     69 H41          1.1730     2.9440     2.1250 hc         1 G85       0.062200
     70 H41A         1.7730     3.5010     0.5780 hc         1 G85       0.062200
     71 H53         -1.0190     3.6390     2.9360 ha         1 G85       0.107500
     72 H55          0.0970     4.4090    -1.1710 ha         1 G85       0.107500
     73 H7          -3.0230     5.0810     2.6590 ha         1 G85       0.113000
     74 H11         -1.9090     5.8520    -1.4410 ha         1 G85       0.113000
     75 H9          -3.4730     6.1910     0.4710 ha         1 G85       0.113000
     76 H3           9.5470     2.5210    -1.5630 h1         1 G85       0.047700
     77 H3A          9.3860     3.8630    -0.3990 h1         1 G85       0.047700
     78 H5          10.2850     2.3860     1.4240 hc         1 G85       0.046367
     79 H5A         10.4450     1.0460     0.2610 hc         1 G85       0.046367
     80 H5B         11.4360     2.5090     0.0750 hc         1 G85       0.046367
     81 HN49         2.7540     1.4990    -1.0430 hn         1 G85       0.315500
     82 H57          4.3740    -0.3380     0.6330 h1         1 G85       0.102700
     83 H59          2.7590    -1.6600    -0.8250 hc         1 G85       0.049200
     84 H59A         3.5500    -1.0050    -2.2390 hc         1 G85       0.049200
     85 H61          5.7020    -2.0950    -1.5260 hc         1 G85       0.089700
     86 H63          6.1850     0.0780    -1.0000 hc         1 G85       0.060700
     87 H63A         5.1000     1.0310    -2.0060 hc         1 G85       0.060700
     88 HN69         4.2280    -4.6910     1.2120 hn         1 G85       0.329500
     89 H71          3.3700    -5.5530    -1.0270 h1         1 G85       0.045200
     90 H71A         2.4020    -4.0770    -0.7920 h1         1 G85       0.045200
     91 H73          3.6920    -3.5120    -2.8300 hc         1 G85       0.060200
     92 H73A         5.1220    -4.3550    -2.2270 hc         1 G85       0.060200
     93 H82          4.8820     2.7350    -0.1880 hc         1 G85       0.079200
     94 H82A         5.9010     1.6930     0.8730 hc         1 G85       0.079200
     95 O35         -1.9370     1.2650    -0.6240 o          1 G85      -0.594100
@<TRIPOS>BOND
     1     1     2 2   
     2     1     3 1   
     3     1    12 1   
     4     3     4 1   
     5     4     5 1   
     6     4    47 1   
     7     4    48 1   
     8     5     6 ar  
     9     5    10 ar  
    10     6     7 ar  
    11     6    49 1   
    12     7     8 ar  
    13     7    50 1   
    14     8     9 ar  
    15     8    51 1   
    16     9    10 ar  
    17     9    52 1   
    18    10    53 1   
    19    11    16 1   
    20    11    20 1   
    21    11    95 2   
    22    12    16 1   
    23    12    54 1   
    24    13    18 1   
    25    13    55 1   
    26    13    56 1   
    27    13    57 1   
    28    14    18 1   
    29    14    58 1   
    30    14    59 1   
    31    14    60 1   
    32    15    18 1   
    33    15    61 1   
    34    15    62 1   
    35    15    63 1   
    36    16    17 1   
    37    16    64 1   
    38    17    19 1   
    39    17    65 1   
    40    17    66 1   
    41    18    19 1   
    42    20    21 1   
    43    20    67 1   
    44    21    22 1   
    45    21    24 1   
    46    21    68 1   
    47    22    23 2   
    48    22    34 1   
    49    24    25 1   
    50    24    69 1   
    51    24    70 1   
    52    25    26 ar  
    53    25    27 ar  
    54    26    28 ar  
    55    26    71 1   
    56    27    29 ar  
    57    27    72 1   
    58    28    30 ar  
    59    28    73 1   
    60    29    30 ar  
    61    29    74 1   
    62    30    75 1   
    63    31    32 1   
    64    31    45 1   
    65    32    33 1   
    66    32    76 1   
    67    32    77 1   
    68    33    78 1   
    69    33    79 1   
    70    33    80 1   
    71    34    35 1   
    72    34    81 1   
    73    35    36 1   
    74    35    38 1   
    75    35    82 1   
    76    36    37 1   
    77    36    83 1   
    78    36    84 1   
    79    37    39 1   
    80    37    43 1   
    81    37    85 1   
    82    38    44 1   
    83    38    86 1   
    84    38    87 1   
    85    39    40 2   
    86    39    41 1   
    87    41    42 1   
    88    41    88 1   
    89    42    43 1   
    90    42    89 1   
    91    42    90 1   
    92    43    91 1   
    93    43    92 1   
    94    44    45 1   
    95    44    93 1   
    96    44    94 1   
    97    45    46 2   
@<TRIPOS>SUBSTRUCTURE
     1 G85         1 TEMP              0 ****  ****    0 ROOT
