@<TRIPOS>MOLECULE
G85
   95    97     1     0     0
SMALL
bcc


@<TRIPOS>ATOM
      1 C17         -4.8520    -0.1920     1.0670 c          1 G85       0.758100
      2 O19         -4.9850    -0.2370     2.2750 o          1 G85      -0.611000
      3 O15         -5.8720    -0.1830     0.2030 os         1 G85      -0.428900
      4 C13         -7.1910    -0.2570     0.7570 c3         1 G85       0.208700
      5 C4          -8.1500    -0.2320    -0.3930 ca         1 G85      -0.100300
      6 C2          -8.4210    -1.3960    -1.1080 ca         1 G85      -0.101500
      7 C1          -9.2870    -1.3710    -2.1920 ca         1 G85      -0.134000
      8 C10         -9.8930    -0.1790    -2.5710 ca         1 G85      -0.116000
      9 C8          -9.6290     0.9860    -1.8620 ca         1 G85      -0.134000
     10 C6          -8.7590     0.9570    -0.7800 ca         1 G85      -0.101500
     11 C31         -1.3790     0.5300     0.2070 c          1 G85       0.677100
     12 N21         -3.6760    -0.1440     0.4220 ns         1 G85      -0.551900
     13 C12         -1.2970    -4.3640     1.4840 c3         1 G85      -0.106433
     14 C45          0.6420    -2.8910     0.8660 c3         1 G85      -0.106433
     15 C43         -0.7360    -3.9490    -0.9180 c3         1 G85      -0.106433
     16 C23         -2.4210    -0.1170     1.1220 c3         1 G85       0.051700
     17 C25         -1.9440    -1.5100     1.5350 c3         1 G85       0.122400
     18 C29         -0.7640    -3.3450     0.4800 c3         1 G85       0.164800
     19 O27         -1.6390    -2.2200     0.3670 os         1 G85      -0.417600
     20 N33         -0.2210     0.8200     0.8200 ns         1 G85      -0.563900
     21 C37          0.9240     1.3870     0.1520 c3         1 G85       0.033700
     22 C39          2.1320     0.5080     0.4610 c          1 G85       0.652100
     23 O47          2.4270     0.2510     1.6200 o          1 G85      -0.605100
     24 C41          1.1890     2.8300     0.6090 c3         1 G85      -0.041100
     25 C51         -0.0030     3.7070     0.3550 ca         1 G85      -0.084300
     26 C53         -0.9540     3.9200     1.3490 ca         1 G85      -0.118500
     27 C55         -0.2070     4.2800    -0.8980 ca         1 G85      -0.118500
     28 C7          -2.0830     4.6880     1.0980 ca         1 G85      -0.123500
     29 C11         -1.3320     5.0510    -1.1530 ca         1 G85      -0.123500
     30 C9          -2.2760     5.2550    -0.1540 ca         1 G85      -0.122000
     31 O86          6.9950     2.7930     0.6300 os         1 G85      -0.428900
     32 C3           8.1970     3.5670     0.4940 c3         1 G85       0.144400
     33 C5           8.1850     4.6290     1.5670 c3         1 G85      -0.097100
     34 N49          2.8050     0.0670    -0.6090 ns         1 G85      -0.569900
     35 C57          3.9490    -0.8280    -0.5480 c3         1 G85       0.106700
     36 C59          3.6910    -1.9930    -1.5060 c3         1 G85      -0.080400
     37 C61          4.7220    -3.1270    -1.4830 c5         1 G85      -0.149700
     38 C63          5.2510    -0.0930    -0.8640 c3         1 G85      -0.079400
     39 C65          4.7960    -3.7600    -0.1000 c          1 G85       0.702500
     40 O66          5.3730    -3.3070     0.8770 o          1 G85      -0.624500
     41 N69          4.0820    -4.8970    -0.1370 ns         1 G85      -0.583900
     42 C71          3.4810    -5.1950    -1.4190 c5         1 G85       0.099000
     43 C73          4.2850    -4.3000    -2.3660 c5         1 G85      -0.093400
     44 C82          5.5030     1.0780     0.0700 c3         1 G85      -0.136400
     45 C84          6.8070     1.7780    -0.2030 c          1 G85       0.643100
     46 O88          7.5920     1.4720    -1.0660 o          1 G85      -0.545000
     47 H13         -7.3660     0.5870     1.4280 h1         1 G85       0.054700
     48 H13A        -7.3000    -1.1770     1.3360 h1         1 G85       0.054700
     49 H2          -7.9560    -2.3290    -0.8130 ha         1 G85       0.132500
     50 H1          -9.4920    -2.2820    -2.7390 ha         1 G85       0.132000
     51 H10        -10.5710    -0.1600    -3.4140 ha         1 G85       0.130000
     52 H8         -10.1020     1.9160    -2.1500 ha         1 G85       0.132000
     53 H6          -8.5580     1.8680    -0.2280 ha         1 G85       0.132500
     54 HN21        -3.6520    -0.0900    -0.5850 hn         1 G85       0.360500
     55 H12         -0.6470    -5.2400     1.5120 hc         1 G85       0.042367
     56 H12A        -1.3360    -3.9620     2.4990 hc         1 G85       0.042367
     57 H12B        -2.2990    -4.6990     1.2120 hc         1 G85       0.042367
     58 H45          1.3390    -3.7290     0.8170 hc         1 G85       0.042367
     59 H45A         0.9940    -2.1210     0.1790 hc         1 G85       0.042367
     60 H45B         0.6950    -2.4870     1.8770 hc         1 G85       0.042367
     61 H43         -1.7280    -4.2790    -1.2290 hc         1 G85       0.042367
     62 H43A        -0.3710    -3.2230    -1.6470 hc         1 G85       0.042367
     63 H43B        -0.0710    -4.8130    -0.9480 hc         1 G85       0.042367
     64 H23         -2.5200     0.4860     2.0290 h1         1 G85       0.087700
     65 H25         -1.0820    -1.4050     2.2050 h1         1 G85       0.041700
     66 H25A        -2.7340    -1.9950     2.1200 h1         1 G85       0.041700
     67 HN33        -0.1330     0.6540     1.8120 hn         1 G85       0.329500
     68 H37          0.7110     1.3870    -0.9170 h1         1 G85       0.088700
     69 H41          1.4450     2.8280     1.6700 hc         1 G85       0.062200
     70 H41A         2.0620     3.2070     0.0690 hc         1 G85       0.062200
     71 H53         -0.8080     3.4880     2.3320 ha         1 G85       0.125500
     72 H55          0.5250     4.1220    -1.6820 ha         1 G85       0.125500
     73 H7          -2.8110     4.8460     1.8840 ha         1 G85       0.131000
     74 H11         -1.4720     5.4930    -2.1310 ha         1 G85       0.131000
     75 H9          -3.1540     5.8570    -0.3500 ha         1 G85       0.131000
     76 H3           9.0690     2.9180     0.5990 h1         1 G85       0.047700
     77 H3A          8.2340     4.0180    -0.4990 h1         1 G85       0.047700
     78 H5           7.3310     5.2970     1.4620 hc         1 G85       0.046367
     79 H5A          8.1630     4.1900     2.5650 hc         1 G85       0.046367
     80 H5B          9.0910     5.2290     1.4880 hc         1 G85       0.046367
     81 HN49         2.4850     0.3480    -1.5230 hn         1 G85       0.315500
     82 H57          3.9940    -1.2000     0.4750 h1         1 G85       0.102700
     83 H59          2.7000    -2.4010    -1.2850 hc         1 G85       0.049200
     84 H59A         3.6410    -1.6070    -2.5300 hc         1 G85       0.049200
     85 H61          5.7040    -2.7490    -1.7690 hc         1 G85       0.089700
     86 H63          6.0750    -0.8040    -0.7830 hc         1 G85       0.060700
     87 H63A         5.2300     0.2500    -1.9030 hc         1 G85       0.060700
     88 HN69         3.9010    -5.4440     0.6910 hn         1 G85       0.329500
     89 H71          3.5760    -6.2530    -1.6620 h1         1 G85       0.045200
     90 H71A         2.4140    -4.9480    -1.4240 h1         1 G85       0.045200
     91 H73          3.7060    -3.9900    -3.2360 hc         1 G85       0.060200
     92 H73A         5.1600    -4.8410    -2.7260 hc         1 G85       0.060200
     93 H82          4.7030     1.8200    -0.0060 hc         1 G85       0.079200
     94 H82A         5.5020     0.7460     1.1130 hc         1 G85       0.079200
     95 O35         -1.5970     0.7360    -0.9730 o          1 G85      -0.594100
@<TRIPOS>BOND
     1     1     2 2   
     2     1     3 1   
     3     1    12 1   
     4     3     4 1   
     5     4     5 1   
     6     4    47 1   
     7     4    48 1   
     8     5     6 ar  
     9     5    10 ar  
    10     6     7 ar  
    11     6    49 1   
    12     7     8 ar  
    13     7    50 1   
    14     8     9 ar  
    15     8    51 1   
    16     9    10 ar  
    17     9    52 1   
    18    10    53 1   
    19    11    16 1   
    20    11    20 1   
    21    11    95 2   
    22    12    16 1   
    23    12    54 1   
    24    13    18 1   
    25    13    55 1   
    26    13    56 1   
    27    13    57 1   
    28    14    18 1   
    29    14    58 1   
    30    14    59 1   
    31    14    60 1   
    32    15    18 1   
    33    15    61 1   
    34    15    62 1   
    35    15    63 1   
    36    16    17 1   
    37    16    64 1   
    38    17    19 1   
    39    17    65 1   
    40    17    66 1   
    41    18    19 1   
    42    20    21 1   
    43    20    67 1   
    44    21    22 1   
    45    21    24 1   
    46    21    68 1   
    47    22    23 2   
    48    22    34 1   
    49    24    25 1   
    50    24    69 1   
    51    24    70 1   
    52    25    26 ar  
    53    25    27 ar  
    54    26    28 ar  
    55    26    71 1   
    56    27    29 ar  
    57    27    72 1   
    58    28    30 ar  
    59    28    73 1   
    60    29    30 ar  
    61    29    74 1   
    62    30    75 1   
    63    31    32 1   
    64    31    45 1   
    65    32    33 1   
    66    32    76 1   
    67    32    77 1   
    68    33    78 1   
    69    33    79 1   
    70    33    80 1   
    71    34    35 1   
    72    34    81 1   
    73    35    36 1   
    74    35    38 1   
    75    35    82 1   
    76    36    37 1   
    77    36    83 1   
    78    36    84 1   
    79    37    39 1   
    80    37    43 1   
    81    37    85 1   
    82    38    44 1   
    83    38    86 1   
    84    38    87 1   
    85    39    40 2   
    86    39    41 1   
    87    41    42 1   
    88    41    88 1   
    89    42    43 1   
    90    42    89 1   
    91    42    90 1   
    92    43    91 1   
    93    43    92 1   
    94    44    45 1   
    95    44    93 1   
    96    44    94 1   
    97    45    46 2   
@<TRIPOS>SUBSTRUCTURE
     1 G85         1 TEMP              0 ****  ****    0 ROOT
