@<TRIPOS>MOLECULE
G86
   97    98     1     0     0
SMALL
No Charge or Current Charge


@<TRIPOS>ATOM
      1 C1          -8.4410     1.1580    -0.1970 c3         1 G86      -0.108767
      2 C2          -8.4520    -1.3060    -0.9880 c3         1 G86      -0.108767
      3 C3           7.6740     3.4750     1.1150 c3         1 G86       0.167600
      4 C4          -8.4210     0.5920    -2.6670 c3         1 G86      -0.108767
      5 C5           7.2750     4.9270     0.8070 c3         1 G86      -0.097100
      6 C7          -2.1350     3.1540     2.6920 ca         1 G86      -0.106500
      7 C9          -2.4740     4.2090     1.8280 ca         1 G86      -0.105000
      8 C11         -1.7130     4.4370     0.6690 ca         1 G86      -0.106500
      9 C12         -3.0900    -3.5920     3.0640 c3         1 G86      -0.109433
     10 C13         -7.9620     0.1390    -1.2640 c3         1 G86       0.224000
     11 C14         -2.7260    -2.7620    -0.6210 c3         1 G86      -0.096100
     12 O15         -6.5170     0.1560    -1.3380 os         1 G86      -0.471100
     13 C17         -5.7220    -0.1910    -0.2810 c          1 G86       0.650100
     14 O19         -6.0800    -0.5400     0.8310 o          1 G86      -0.562000
     15 N21         -4.4220    -0.0690    -0.6750 ns         1 G86      -0.493900
     16 C23         -3.2340    -0.3400     0.1720 c3         1 G86       0.026700
     17 C25         -3.1020    -1.8470     0.5630 c3         1 G86       0.171300
     18 O27         -2.0410    -1.9910     1.5560 os         1 G86      -0.475000
     19 C29         -2.3840    -2.2180     2.9450 c3         1 G86       0.190000
     20 C31         -1.9600     0.2730    -0.4850 c          1 G86       0.610100
     21 N33         -0.7580    -0.0540     0.1030 ns         1 G86      -0.483900
     22 O35         -2.0130     1.0040    -1.4680 o          1 G86      -0.610100
     23 C37          0.5450     0.5810    -0.1940 c3         1 G86       0.033700
     24 C39          1.6680    -0.4860    -0.3390 c          1 G86       0.589100
     25 C41          0.8960     1.6300     0.8950 c3         1 G86      -0.044100
     26 C43         -3.2620    -1.0590     3.4760 c3         1 G86      -0.109433
     27 C45         -1.0270    -2.2430     3.6820 c3         1 G86      -0.109433
     28 O47          1.5200    -1.6650    -0.0410 o          1 G86      -0.609100
     29 N49          2.8630    -0.0040    -0.8310 ns         1 G86      -0.498900
     30 C51         -0.2720     2.5510     1.2350 ca         1 G86      -0.082300
     31 C53         -1.0370     2.3290     2.3970 ca         1 G86      -0.099500
     32 C55         -0.6150     3.6100     0.3730 ca         1 G86      -0.099500
     33 C57          4.0690    -0.8110    -1.0390 c3         1 G86       0.109700
     34 C59          4.0720    -1.3690    -2.4870 c3         1 G86      -0.084400
     35 C61          5.2050    -2.3800    -2.8410 c5         1 G86      -0.150700
     36 C63          5.3340     0.0110    -0.6790 c3         1 G86      -0.077400
     37 C65          5.1770    -3.6010    -1.9140 c          1 G86       0.564000
     38 O66          5.7270    -3.7660    -0.8380 o          1 G86      -0.556000
     39 N69          4.6010    -4.6120    -2.6320 ns         1 G86      -0.511900
     40 C71          4.1400    -4.2310    -3.9660 c5         1 G86       0.099000
     41 C73          5.0610    -3.0110    -4.2540 c5         1 G86      -0.092400
     42 C82          5.3360     0.5650     0.7710 c3         1 G86      -0.137400
     43 C84          6.6400     1.3020     1.0800 c          1 G86       0.594100
     44 O86          6.5220     2.6510     0.8730 os         1 G86      -0.453100
     45 O88          7.6620     0.7450     1.4560 o          1 G86      -0.495000
     46 H1          -8.2500     0.8050     0.8220 hc         1 G86       0.049367
     47 H1A         -7.9400     2.1240    -0.3290 hc         1 G86       0.049367
     48 H1B         -9.5210     1.3220    -0.2850 hc         1 G86       0.049367
     49 H2          -9.5340    -1.3790    -1.1510 hc         1 G86       0.049367
     50 H2A         -7.9600    -2.0190    -1.6590 hc         1 G86       0.049367
     51 H2B         -8.2600    -1.6140     0.0450 hc         1 G86       0.049367
     52 H3           8.5110     3.1800     0.4670 h1         1 G86       0.047700
     53 H3A          7.9990     3.3980     2.1610 h1         1 G86       0.047700
     54 H4          -8.0440     1.5960    -2.8960 hc         1 G86       0.049367
     55 H4A         -8.0520    -0.0950    -3.4390 hc         1 G86       0.049367
     56 H4B         -9.5150     0.6170    -2.7310 hc         1 G86       0.049367
     57 H5           6.9610     5.0280    -0.2380 hc         1 G86       0.046700
     58 H5A          6.4490     5.2460     1.4550 hc         1 G86       0.046700
     59 H5B          8.1250     5.5980     0.9770 hc         1 G86       0.046700
     60 H9          -3.3250     4.8470     2.0550 ha         1 G86       0.111000
     61 H11         -1.9760     5.2520    -0.0020 ha         1 G86       0.111500
     62 H12         -2.5170    -4.3700     2.5460 hc         1 G86       0.043811
     63 H12A        -3.1820    -3.8840     4.1170 hc         1 G86       0.043811
     64 H12B        -4.1010    -3.5690     2.6430 hc         1 G86       0.043811
     65 H14         -1.7420    -2.5040    -1.0300 hc         1 G86       0.046700
     66 H14A        -2.6980    -3.8080    -0.2960 hc         1 G86       0.046700
     67 H14B        -3.4680    -2.6790    -1.4240 hc         1 G86       0.046700
     68 HN21        -4.2800     0.2710    -1.6190 hn         1 G86       0.349500
     69 H23         -3.3740     0.2290     1.0970 h1         1 G86       0.081700
     70 H25         -4.0860    -2.1900     0.9310 h1         1 G86       0.055700
     71 HN33        -0.8070    -0.7450     0.8480 hn         1 G86       0.336500
     72 H37          0.4760     1.0950    -1.1610 h1         1 G86       0.085700
     73 H41          1.2260     1.1020     1.7990 hc         1 G86       0.061700
     74 H41A         1.7570     2.2250     0.5650 hc         1 G86       0.061700
     75 H43         -3.4250    -1.1700     4.5550 hc         1 G86       0.043811
     76 H43A        -2.7770    -0.0910     3.3100 hc         1 G86       0.043811
     77 H43B        -4.2480    -1.0450     2.9970 hc         1 G86       0.043811
     78 H45         -0.3840    -3.0390     3.2870 hc         1 G86       0.043811
     79 H45A        -0.5010    -1.2890     3.5600 hc         1 G86       0.043811
     80 H45B        -1.1670    -2.4200     4.7560 hc         1 G86       0.043811
     81 HN49         2.8980     0.9800    -1.0690 hn         1 G86       0.315500
     82 H53         -0.7850     1.5110     3.0690 ha         1 G86       0.109000
     83 H55         -0.0380     3.7870    -0.5320 ha         1 G86       0.109000
     84 H57          4.0260    -1.6630    -0.3450 h1         1 G86       0.097700
     85 H59          3.1010    -1.8490    -2.6620 hc         1 G86       0.052700
     86 H59A         4.1140    -0.5230    -3.1850 hc         1 G86       0.052700
     87 H61          6.1590    -1.8570    -2.7140 hc         1 G86       0.085700
     88 H63          6.2210    -0.6220    -0.8010 hc         1 G86       0.063700
     89 H63A         5.4410     0.8430    -1.3860 hc         1 G86       0.063700
     90 HN69         4.5530    -5.5390    -2.2250 hn         1 G86       0.329500
     91 H71          4.2720    -5.0290    -4.7080 h1         1 G86       0.045700
     92 H71A         3.0800    -3.9420    -3.9530 h1         1 G86       0.045700
     93 H73          4.6420    -2.3270    -5.0010 hc         1 G86       0.059200
     94 H73A         6.0340    -3.3470    -4.6290 hc         1 G86       0.059200
     95 H82          4.5030     1.2700     0.8700 hc         1 G86       0.077200
     96 H82A         5.2210    -0.2680     1.4740 hc         1 G86       0.077200
     97 H7          -2.7250     2.9750     3.5890 ha         1 G86       0.111500
@<TRIPOS>BOND
     1     1    10 1   
     2     1    46 1   
     3     1    47 1   
     4     1    48 1   
     5     2    10 1   
     6     2    49 1   
     7     2    50 1   
     8     2    51 1   
     9     3     5 1   
    10     3    44 1   
    11     3    52 1   
    12     3    53 1   
    13     4    10 1   
    14     4    54 1   
    15     4    55 1   
    16     4    56 1   
    17     5    57 1   
    18     5    58 1   
    19     5    59 1   
    20     6     7 ar  
    21     6    31 ar  
    22     6    97 1   
    23     7     8 ar  
    24     7    60 1   
    25     8    32 ar  
    26     8    61 1   
    27     9    19 1   
    28     9    62 1   
    29     9    63 1   
    30     9    64 1   
    31    10    12 1   
    32    11    17 1   
    33    11    65 1   
    34    11    66 1   
    35    11    67 1   
    36    12    13 1   
    37    13    14 2   
    38    13    15 1   
    39    15    16 1   
    40    15    68 1   
    41    16    17 1   
    42    16    20 1   
    43    16    69 1   
    44    17    18 1   
    45    17    70 1   
    46    18    19 1   
    47    19    26 1   
    48    19    27 1   
    49    20    21 1   
    50    20    22 2   
    51    21    23 1   
    52    21    71 1   
    53    23    24 1   
    54    23    25 1   
    55    23    72 1   
    56    24    28 2   
    57    24    29 1   
    58    25    30 1   
    59    25    73 1   
    60    25    74 1   
    61    26    75 1   
    62    26    76 1   
    63    26    77 1   
    64    27    78 1   
    65    27    79 1   
    66    27    80 1   
    67    29    33 1   
    68    29    81 1   
    69    30    31 ar  
    70    30    32 ar  
    71    31    82 1   
    72    32    83 1   
    73    33    34 1   
    74    33    36 1   
    75    33    84 1   
    76    34    35 1   
    77    34    85 1   
    78    34    86 1   
    79    35    37 1   
    80    35    41 1   
    81    35    87 1   
    82    36    42 1   
    83    36    88 1   
    84    36    89 1   
    85    37    38 2   
    86    37    39 1   
    87    39    40 1   
    88    39    90 1   
    89    40    41 1   
    90    40    91 1   
    91    40    92 1   
    92    41    93 1   
    93    41    94 1   
    94    42    43 1   
    95    42    95 1   
    96    42    96 1   
    97    43    44 1   
    98    43    45 2   
@<TRIPOS>SUBSTRUCTURE
     1 G86         1 TEMP              0 ****  ****    0 ROOT
