@<TRIPOS>MOLECULE
G86
   97    98     1     0     0
SMALL
bcc


@<TRIPOS>ATOM
      1 C1          -7.2630     1.5750     1.7540 c3         1 G86      -0.108767
      2 C2          -8.3590    -0.2110     0.3480 c3         1 G86      -0.108767
      3 C3           7.7290     4.1950     0.1900 c3         1 G86       0.144400
      4 C4          -8.1800     2.1270    -0.4970 c3         1 G86      -0.108767
      5 C5           7.7220     5.3060     1.2120 c3         1 G86      -0.097100
      6 C7          -3.3570     3.3450     0.9670 ca         1 G86      -0.124500
      7 C9          -3.3300     4.3340    -0.0060 ca         1 G86      -0.123000
      8 C11         -2.1300     4.6440    -0.6340 ca         1 G86      -0.124500
      9 C12         -2.4400    -4.9680    -0.2790 c3         1 G86      -0.109433
     10 C13         -7.5040     1.0500     0.3440 c3         1 G86       0.200800
     11 C14         -3.0730    -2.0380    -2.5630 c3         1 G86      -0.096100
     12 O15         -6.2500     0.8290    -0.3540 os         1 G86      -0.447900
     13 C17         -5.3240    -0.0180     0.0890 c          1 G86       0.766100
     14 O19         -5.4270    -0.7400     1.0620 o          1 G86      -0.611000
     15 N21         -4.2350     0.0210    -0.7070 ns         1 G86      -0.560900
     16 C23         -3.0300    -0.6910    -0.3750 c3         1 G86       0.026700
     17 C25         -2.9590    -2.0800    -1.0500 c3         1 G86       0.148100
     18 O27         -1.7340    -2.6830    -0.7020 os         1 G86      -0.428600
     19 C29         -1.7250    -3.7330     0.2670 c3         1 G86       0.166800
     20 C31         -1.8390     0.1820    -0.7540 c          1 G86       0.677100
     21 N33         -0.8070     0.1150     0.0980 ns         1 G86      -0.550900
     22 O35         -1.8540     0.8750    -1.7590 o          1 G86      -0.610100
     23 C37          0.3660     0.9490     0.0210 c3         1 G86       0.033700
     24 C39          1.5610     0.0940     0.4280 c          1 G86       0.656100
     25 C41          0.2460     2.1600     0.9690 c3         1 G86      -0.044100
     26 C43         -2.3460    -3.2930     1.5930 c3         1 G86      -0.109433
     27 C45         -0.2470    -4.0390     0.4780 c3         1 G86      -0.109433
     28 O47          1.5080    -0.5940     1.4380 o          1 G86      -0.609100
     29 N49          2.6330     0.1800    -0.3660 ns         1 G86      -0.565900
     30 C51         -0.9880     2.9600     0.6710 ca         1 G86      -0.082300
     31 C53         -2.1930     2.6690     1.3060 ca         1 G86      -0.117500
     32 C55         -0.9710     3.9590    -0.2980 ca         1 G86      -0.117500
     33 C57          3.8390    -0.6090    -0.1720 c3         1 G86       0.109700
     34 C59          3.6750    -1.9510    -0.8920 c3         1 G86      -0.084400
     35 C61          4.8090    -2.9700    -0.7210 c5         1 G86      -0.150700
     36 C63          5.0520     0.1840    -0.6460 c3         1 G86      -0.077400
     37 C65          5.0150    -3.3070     0.7500 c          1 G86       0.706500
     38 O66          5.6010    -2.6240     1.5770 o          1 G86      -0.631500
     39 N69          4.4070    -4.4810     0.9830 ns         1 G86      -0.578900
     40 C71          3.7640    -5.0710    -0.1700 c5         1 G86       0.099000
     41 C73          4.4350    -4.3250    -1.3270 c5         1 G86      -0.092400
     42 C82          5.2470     1.4610     0.1530 c3         1 G86      -0.137400
     43 C84          6.4510     2.2540    -0.2800 c          1 G86       0.643100
     44 O86          6.6190     3.3310     0.4750 os         1 G86      -0.429900
     45 O88          7.1810     1.9630    -1.1960 o          1 G86      -0.544000
     46 H1          -6.8530     0.8170     2.4180 hc         1 G86       0.049367
     47 H1A         -6.5870     2.4320     1.7420 hc         1 G86       0.049367
     48 H1B         -8.2100     1.9130     2.1770 hc         1 G86       0.049367
     49 H2          -9.3450     0.0270     0.7510 hc         1 G86       0.049367
     50 H2A         -8.5010    -0.5910    -0.6650 hc         1 G86       0.049367
     51 H2B         -7.9310    -1.0010     0.9610 hc         1 G86       0.049367
     52 H3           7.6340     4.5950    -0.8220 h1         1 G86       0.047700
     53 H3A          8.6610     3.6270     0.2390 h1         1 G86       0.047700
     54 H4          -7.5740     3.0340    -0.5450 hc         1 G86       0.049367
     55 H4A         -8.3630     1.7800    -1.5150 hc         1 G86       0.049367
     56 H4B         -9.1400     2.3880    -0.0550 hc         1 G86       0.049367
     57 H5           6.8080     5.8970     1.1570 hc         1 G86       0.046700
     58 H5A          7.8270     4.9190     2.2250 hc         1 G86       0.046700
     59 H5B          8.5620     5.9740     1.0210 hc         1 G86       0.046700
     60 H9          -4.2360     4.8650    -0.2690 ha         1 G86       0.129000
     61 H11         -2.0980     5.4200    -1.3880 ha         1 G86       0.129500
     62 H12         -1.9740    -5.3050    -1.2060 hc         1 G86       0.043811
     63 H12A        -2.3880    -5.7870     0.4410 hc         1 G86       0.043811
     64 H12B        -3.4970    -4.7830    -0.4780 hc         1 G86       0.043811
     65 H14         -2.2140    -1.5500    -3.0240 hc         1 G86       0.046700
     66 H14A        -3.1340    -3.0540    -2.9540 hc         1 G86       0.046700
     67 H14B        -3.9740    -1.5110    -2.8760 hc         1 G86       0.046700
     68 HN21        -4.1860     0.7020    -1.4500 hn         1 G86       0.349500
     69 H23         -3.0250    -0.8540     0.7050 h1         1 G86       0.081700
     70 H25         -3.8150    -2.6450    -0.6610 h1         1 G86       0.055700
     71 HN33        -0.8710    -0.4910     0.9010 hn         1 G86       0.336500
     72 H37          0.4700     1.3040    -1.0060 h1         1 G86       0.085700
     73 H41          0.2220     1.7950     1.9990 hc         1 G86       0.061700
     74 H41A         1.1420     2.7760     0.8640 hc         1 G86       0.061700
     75 H43         -2.2690    -4.0980     2.3240 hc         1 G86       0.043811
     76 H43A        -1.8200    -2.4280     2.0050 hc         1 G86       0.043811
     77 H43B        -3.4040    -3.0400     1.5040 hc         1 G86       0.043811
     78 H45          0.2260    -4.3510    -0.4550 hc         1 G86       0.043811
     79 H45A         0.2850    -3.1630     0.8540 hc         1 G86       0.043811
     80 H45B        -0.1240    -4.8450     1.2020 hc         1 G86       0.043811
     81 HN49         2.5510     0.7030    -1.2250 hn         1 G86       0.315500
     82 H53         -2.2250     1.9030     2.0730 ha         1 G86       0.127000
     83 H55         -0.0410     4.2020    -0.8000 ha         1 G86       0.127000
     84 H57          3.9340    -0.7810     0.9010 h1         1 G86       0.097700
     85 H59          2.7380    -2.4040    -0.5510 hc         1 G86       0.052700
     86 H59A         3.5510    -1.7630    -1.9630 hc         1 G86       0.052700
     87 H61          5.7360    -2.5790    -1.1450 hc         1 G86       0.085700
     88 H63          5.9370    -0.4460    -0.5460 hc         1 G86       0.063700
     89 H63A         4.9500     0.4090    -1.7120 hc         1 G86       0.063700
     90 HN69         4.3090    -4.8580     1.9130 hn         1 G86       0.329500
     91 H71          3.9350    -6.1460    -0.2100 h1         1 G86       0.045700
     92 H71A         2.6820    -4.9070    -0.1480 h1         1 G86       0.045700
     93 H73          3.7850    -4.2440    -2.1980 hc         1 G86       0.059200
     94 H73A         5.3360    -4.8590    -1.6340 hc         1 G86       0.059200
     95 H82          4.3710     2.1120     0.0770 hc         1 G86       0.077200
     96 H82A         5.3510     1.2330     1.2180 hc         1 G86       0.077200
     97 H7          -4.2850     3.1020     1.4690 ha         1 G86       0.129500
@<TRIPOS>BOND
     1     1    10 1   
     2     1    46 1   
     3     1    47 1   
     4     1    48 1   
     5     2    10 1   
     6     2    49 1   
     7     2    50 1   
     8     2    51 1   
     9     3     5 1   
    10     3    44 1   
    11     3    52 1   
    12     3    53 1   
    13     4    10 1   
    14     4    54 1   
    15     4    55 1   
    16     4    56 1   
    17     5    57 1   
    18     5    58 1   
    19     5    59 1   
    20     6     7 ar  
    21     6    31 ar  
    22     6    97 1   
    23     7     8 ar  
    24     7    60 1   
    25     8    32 ar  
    26     8    61 1   
    27     9    19 1   
    28     9    62 1   
    29     9    63 1   
    30     9    64 1   
    31    10    12 1   
    32    11    17 1   
    33    11    65 1   
    34    11    66 1   
    35    11    67 1   
    36    12    13 1   
    37    13    14 2   
    38    13    15 1   
    39    15    16 1   
    40    15    68 1   
    41    16    17 1   
    42    16    20 1   
    43    16    69 1   
    44    17    18 1   
    45    17    70 1   
    46    18    19 1   
    47    19    26 1   
    48    19    27 1   
    49    20    21 1   
    50    20    22 2   
    51    21    23 1   
    52    21    71 1   
    53    23    24 1   
    54    23    25 1   
    55    23    72 1   
    56    24    28 2   
    57    24    29 1   
    58    25    30 1   
    59    25    73 1   
    60    25    74 1   
    61    26    75 1   
    62    26    76 1   
    63    26    77 1   
    64    27    78 1   
    65    27    79 1   
    66    27    80 1   
    67    29    33 1   
    68    29    81 1   
    69    30    31 ar  
    70    30    32 ar  
    71    31    82 1   
    72    32    83 1   
    73    33    34 1   
    74    33    36 1   
    75    33    84 1   
    76    34    35 1   
    77    34    85 1   
    78    34    86 1   
    79    35    37 1   
    80    35    41 1   
    81    35    87 1   
    82    36    42 1   
    83    36    88 1   
    84    36    89 1   
    85    37    38 2   
    86    37    39 1   
    87    39    40 1   
    88    39    90 1   
    89    40    41 1   
    90    40    91 1   
    91    40    92 1   
    92    41    93 1   
    93    41    94 1   
    94    42    43 1   
    95    42    95 1   
    96    42    96 1   
    97    43    44 1   
    98    43    45 2   
@<TRIPOS>SUBSTRUCTURE
     1 G86         1 TEMP              0 ****  ****    0 ROOT
