@<TRIPOS>MOLECULE
G87
   39    41     1     0     0
SMALL
bcc


@<TRIPOS>ATOM
      1 C13         -0.3700     1.4640    -0.1110 cc         1 G87       0.333700
      2 C16         -2.8120    -0.5720    -1.2530 cc         1 G87       0.290800
      3 C01          1.2320    -3.8090     0.4820 c3         1 G87      -0.045800
      4 C02          2.0670    -2.5990     0.1990 ca         1 G87      -0.058300
      5 C03          1.7180    -1.3370     0.6700 ca         1 G87       0.012400
      6 C04          2.4850    -0.1970     0.4120 ca         1 G87       0.123600
      7 C05          3.6600    -0.3490    -0.3230 ca         1 G87       0.061400
      8 C06          4.0270    -1.5880    -0.8170 ca         1 G87      -0.113000
      9 C07          3.2300    -2.6900    -0.5600 ca         1 G87      -0.108000
     10 CL           4.6960     1.0000    -0.5810 cl         1 G87      -0.061400
     11 N09          2.1200     1.0730     0.8980 nu         1 G87      -0.700500
     12 S10          1.2750     2.1150    -0.0720 sy         1 G87       1.285000
     13 O11          1.8060     1.9940    -1.4090 o          1 G87      -0.571300
     14 O12          1.2230     3.3750     0.6310 o          1 G87      -0.571300
     15 N14         -0.7090     0.6090    -1.0420 nd         1 G87      -0.473100
     16 N15         -1.9480     0.2940    -0.6460 na         1 G87      -0.004800
     17 C17         -4.0320    -0.7240    -0.6620 cd         1 G87      -0.426300
     18 C18         -4.3090     0.0230     0.5140 cd         1 G87       0.733600
     19 N19         -3.4690     0.8500     1.0850 nc         1 G87      -0.760000
     20 C20         -2.2870     0.9790     0.4960 cd         1 G87       0.467500
     21 N21         -1.2610     1.7370     0.8450 nc         1 G87      -0.322300
     22 O22         -5.5040    -0.1620     1.0300 os         1 G87      -0.423100
     23 C23         -5.8550     0.5590     2.2120 c3         1 G87       0.133700
     24 O24         -2.3370    -1.1370    -2.3260 os         1 G87      -0.272900
     25 C25         -3.1840    -2.0420    -3.0410 c3         1 G87       0.129700
     26 H1           1.1590    -4.0020     1.5530 hc         1 G87       0.050700
     27 H2           0.2160    -3.6890     0.1050 hc         1 G87       0.050700
     28 H3           1.6630    -4.6890     0.0100 hc         1 G87       0.050700
     29 H4           4.9370    -1.6970    -1.3910 ha         1 G87       0.156000
     30 H5           3.5300    -3.6550    -0.9470 ha         1 G87       0.140000
     31 H6           1.8780     1.1410     1.8820 hn         1 G87       0.459800
     32 H7          -4.7800    -1.3880    -1.0690 ha         1 G87       0.175000
     33 H8          -5.2040     0.2950     3.0440 h1         1 G87       0.058033
     34 H9          -5.8110     1.6350     2.0480 h1         1 G87       0.058033
     35 H10         -6.8760     0.2670     2.4390 h1         1 G87       0.058033
     36 H11         -4.0940    -1.5410    -3.3700 h1         1 G87       0.060700
     37 H12         -2.6120    -2.3630    -3.9050 h1         1 G87       0.060700
     38 H13         -3.4350    -2.9060    -2.4260 h1         1 G87       0.060700
     39 CL1          0.3030    -1.1770     1.6490 cl         1 G87      -0.100400
@<TRIPOS>BOND
     1     1    12 1   
     2     1    15 2   
     3     1    21 1   
     4     2    16 1   
     5     2    17 2   
     6     2    24 1   
     7     3     4 1   
     8     3    26 1   
     9     3    27 1   
    10     3    28 1   
    11     4     5 ar  
    12     4     9 ar  
    13     5     6 ar  
    14     5    39 1   
    15     6     7 ar  
    16     6    11 1   
    17     7     8 ar  
    18     7    10 1   
    19     8     9 ar  
    20     8    29 1   
    21     9    30 1   
    22    11    12 1   
    23    11    31 1   
    24    12    13 2   
    25    12    14 2   
    26    15    16 1   
    27    16    20 1   
    28    17    18 1   
    29    17    32 1   
    30    18    19 2   
    31    18    22 1   
    32    19    20 1   
    33    20    21 2   
    34    22    23 1   
    35    23    33 1   
    36    23    34 1   
    37    23    35 1   
    38    24    25 1   
    39    25    36 1   
    40    25    37 1   
    41    25    38 1   
@<TRIPOS>SUBSTRUCTURE
     1 G87         1 TEMP              0 ****  ****    0 ROOT
