@<TRIPOS>MOLECULE
G87
   39    41     1     0     0
SMALL
No Charge or Current Charge


@<TRIPOS>ATOM
      1 C13         -0.0020     1.5220    -0.2700 cc         1 G87       0.333700
      2 C16         -2.5220    -0.0040    -2.0980 cc         1 G87       0.240100
      3 C01          1.2940    -3.0920     2.8460 c3         1 G87      -0.045800
      4 C02          1.6630    -2.3300     1.5770 ca         1 G87      -0.058300
      5 C03          2.0210    -0.9620     1.6240 ca         1 G87       0.104000
      6 C04          2.3480    -0.2560     0.4380 ca         1 G87       0.262000
      7 C05          2.3320    -0.9540    -0.7970 ca         1 G87       0.153000
      8 C06          1.9790    -2.3120    -0.8400 ca         1 G87      -0.095000
      9 C07          1.6410    -2.9960     0.3380 ca         1 G87      -0.090000
     10 Cl           2.7770    -0.1690    -2.3160 cl         1 G87      -0.153000
     11 N09          2.6630     1.1150     0.5110 nu         1 G87      -0.894100
     12 S10          1.6150     2.3700     0.0600 sy         1 G87       1.143400
     13 O11          2.2060     2.9010    -1.1750 o          1 G87      -0.500500
     14 O12          1.5450     3.1570     1.2960 o          1 G87      -0.500500
     15 N14         -0.4280     1.2020    -1.4950 nd         1 G87      -0.473100
     16 N15         -1.6140     0.5700    -1.2090 na         1 G87       0.045900
     17 C17         -3.6480    -0.5870    -1.5320 cd         1 G87      -0.343000
     18 C18         -3.7910    -0.5550    -0.1160 cd         1 G87       0.668300
     19 N19         -2.8970     0.0030     0.6790 nc         1 G87      -0.760000
     20 C20         -1.8160     0.5630     0.1670 cd         1 G87       0.467500
     21 N21         -0.8200     1.1570     0.7670 nc         1 G87      -0.322300
     22 O22         -4.9070    -1.1350     0.4190 os         1 G87      -0.446300
     23 C23         -5.1070    -1.1600     1.8480 c3         1 G87       0.156900
     24 O24         -2.3310    -0.0090    -3.4620 os         1 G87      -0.296100
     25 C25         -3.2690    -0.6090    -4.3740 c3         1 G87       0.152900
     26 H1           2.1240    -3.0890     3.5630 hc         1 G87       0.050700
     27 H2           0.4220    -2.6440     3.3360 hc         1 G87       0.050700
     28 H3           1.0480    -4.1400     2.6360 hc         1 G87       0.050700
     29 H4           1.9700    -2.8380    -1.7920 ha         1 G87       0.138000
     30 H5           1.3680    -4.0480     0.2850 ha         1 G87       0.122000
     31 H6           2.9060     1.4180     1.4490 hn         1 G87       0.515000
     32 H7          -4.4220    -1.0640    -2.1160 ha         1 G87       0.157000
     33 H8          -4.2940    -1.7010     2.3510 h1         1 G87       0.058033
     34 H9          -5.1540    -0.1420     2.2570 h1         1 G87       0.058033
     35 H10         -6.0500    -1.6660     2.0930 h1         1 G87       0.058033
     36 H11         -4.2520    -0.1270    -4.2990 h1         1 G87       0.060700
     37 H12         -2.9180    -0.4970    -5.4070 h1         1 G87       0.060700
     38 H13         -3.3840    -1.6810    -4.1710 h1         1 G87       0.060700
     39 Cl1          2.0380    -0.1130     3.1820 cl         1 G87      -0.192000
@<TRIPOS>BOND
     1     1    12 1   
     2     1    15 2   
     3     1    21 1   
     4     2    16 1   
     5     2    17 2   
     6     2    24 1   
     7     3     4 1   
     8     3    26 1   
     9     3    27 1   
    10     3    28 1   
    11     4     5 ar  
    12     4     9 ar  
    13     5     6 ar  
    14     5    39 1   
    15     6     7 ar  
    16     6    11 1   
    17     7     8 ar  
    18     7    10 1   
    19     8     9 ar  
    20     8    29 1   
    21     9    30 1   
    22    11    12 1   
    23    11    31 1   
    24    12    13 2   
    25    12    14 2   
    26    15    16 1   
    27    16    20 1   
    28    17    18 1   
    29    17    32 1   
    30    18    19 2   
    31    18    22 1   
    32    19    20 1   
    33    20    21 2   
    34    22    23 1   
    35    23    33 1   
    36    23    34 1   
    37    23    35 1   
    38    24    25 1   
    39    25    36 1   
    40    25    37 1   
    41    25    38 1   
@<TRIPOS>SUBSTRUCTURE
     1 G87         1 TEMP              0 ****  ****    0 ROOT
