@<TRIPOS>MOLECULE
G88
   21    20     1     0     0
SMALL
No Charge or Current Charge


@<TRIPOS>ATOM
      1 O6          -2.3000    -0.1050    -0.4450 o          1 G88      -0.787500
      2 C6          -1.4840    -0.0140    -1.3510 c          1 G88       0.732000
      3 O7          -1.7940     0.2860    -2.4940 o          1 G88      -0.787500
      4 C5           0.0060    -0.2850    -1.0270 c3         1 G88      -0.167400
      5 C4           0.3400    -1.8000    -1.1230 c3         1 G88      -0.020400
      6 C2           0.4340    -2.3960    -2.5620 c3         1 G88      -0.126700
      7 C3           1.5700    -1.7210    -3.4000 c          1 G88       0.758000
      8 O5           1.2620    -1.0840    -4.4000 o          1 G88      -0.802000
      9 O4           2.7260    -1.7820    -2.9960 o          1 G88      -0.802000
     10 C1           0.5470    -3.9620    -2.5150 c3         1 G88      -0.370400
     11 P1           0.4840    -4.8470    -4.1500 p5         1 G88       1.333500
     12 O2           1.7590    -4.6350    -4.8940 o          1 G88      -0.965500
     13 O3          -0.6740    -4.3430    -4.9430 o          1 G88      -0.965500
     14 O1           0.3050    -6.3030    -3.8770 o          1 G88      -0.965500
     15 H5C1         0.6690     0.2330    -1.7300 hc         1 G88      -0.018300
     16 H5C2         0.2100    -0.0290     0.0210 hc         1 G88      -0.018300
     17 H4C1        -0.4140    -2.3530    -0.5490 hc         1 G88      -0.024800
     18 H4C2         1.2930    -1.9750    -0.6090 hc         1 G88      -0.024800
     19 H2          -0.5100    -2.1710    -3.0710 hc         1 G88       0.069700
     20 H1C1        -0.2760    -4.3560    -1.9050 hc         1 G88      -0.023800
     21 H1C2         1.4750    -4.2450    -2.0030 hc         1 G88      -0.023800
@<TRIPOS>BOND
     1     1     2 1   
     2     2     3 1   
     3     2     4 1   
     4     4     5 1   
     5     4    15 1   
     6     4    16 1   
     7     5     6 1   
     8     5    17 1   
     9     5    18 1   
    10     6     7 1   
    11     6    10 1   
    12     6    19 1   
    13     7     8 1   
    14     7     9 1   
    15    10    11 1   
    16    10    20 1   
    17    10    21 1   
    18    11    12 1   
    19    11    13 1   
    20    11    14 1   
@<TRIPOS>SUBSTRUCTURE
     1 G88         1 TEMP              0 ****  ****    0 ROOT
