@<TRIPOS>MOLECULE
G88
   21    20     1     0     0
SMALL
abcg2


@<TRIPOS>ATOM
      1 O6          -2.2540    -0.6510    -1.5490 o          1 G88      -0.787500
      2 C6          -1.2850     0.1320    -1.6220 c          1 G88       0.732000
      3 O7          -1.3270     1.3060    -2.0510 o          1 G88      -0.787500
      4 C5           0.0670    -0.3560    -1.0810 c3         1 G88      -0.167400
      5 C4           0.3090    -1.8580    -1.1430 c3         1 G88      -0.020400
      6 C2           0.3610    -2.4640    -2.5510 c3         1 G88      -0.126700
      7 C3           1.4080    -1.7140    -3.3840 c          1 G88       0.758000
      8 O5           1.0080    -0.9790    -4.3120 o          1 G88      -0.802000
      9 O4           2.6030    -1.8340    -3.0270 o          1 G88      -0.802000
     10 C1           0.6370    -3.9630    -2.4750 c3         1 G88      -0.370400
     11 P1           0.3700    -4.9210    -4.0410 p5         1 G88       1.333500
     12 O2           1.3510    -4.3610    -5.0800 o          1 G88      -0.965500
     13 O3          -1.1090    -4.7030    -4.4100 o          1 G88      -0.965500
     14 O1           0.6780    -6.3810    -3.6510 o          1 G88      -0.965500
     15 H5C1         0.8750     0.1830    -1.5810 hc         1 G88      -0.018300
     16 H5C2         0.1200    -0.0390    -0.0300 hc         1 G88      -0.018300
     17 H4C1        -0.4720    -2.3680    -0.5710 hc         1 G88      -0.024800
     18 H4C2         1.2530    -2.0860    -0.6350 hc         1 G88      -0.024800
     19 H2          -0.6200    -2.3180    -3.0080 hc         1 G88       0.069700
     20 H1C1        -0.0090    -4.3990    -1.7000 hc         1 G88      -0.023800
     21 H1C2         1.6630    -4.1130    -2.1210 hc         1 G88      -0.023800
@<TRIPOS>BOND
     1     1     2 1   
     2     2     3 1   
     3     2     4 1   
     4     4     5 1   
     5     4    15 1   
     6     4    16 1   
     7     5     6 1   
     8     5    17 1   
     9     5    18 1   
    10     6     7 1   
    11     6    10 1   
    12     6    19 1   
    13     7     8 1   
    14     7     9 1   
    15    10    11 1   
    16    10    20 1   
    17    10    21 1   
    18    11    12 1   
    19    11    13 1   
    20    11    14 1   
@<TRIPOS>SUBSTRUCTURE
     1 G88         1 TEMP              0 ****  ****    0 ROOT
