@<TRIPOS>MOLECULE
G89
   80    83     1     0     0
SMALL
abcg2


@<TRIPOS>ATOM
      1 C21         -1.7450    -0.6640     0.1060 c          1 G89       0.649100
      2 O22         -1.7790    -0.7250     1.3170 o          1 G89      -0.539000
      3 O23         -2.6930    -0.0900    -0.6450 os         1 G89      -0.461100
      4 C24         -3.8140     0.4940     0.0130 c5         1 G89       0.194300
      5 C25         -3.4910     1.7570     0.8230 c5         1 G89      -0.108400
      6 C26         -4.7390     2.6320     0.7020 c5         1 G89       0.157300
      7 O27         -4.4480     3.8640     0.0630 os         1 G89      -0.444000
      8 C28         -5.6620     4.3040    -0.4970 c5         1 G89       0.111600
      9 C29         -6.3360     3.0500    -1.0870 c5         1 G89       0.141300
     10 C30         -5.7060     1.9190    -0.2670 c5         1 G89      -0.102700
     11 C31         -4.8040     0.9620    -1.0410 c5         1 G89      -0.074400
     12 O41         -7.7370     3.0530    -0.9510 oh         1 G89      -0.710000
     13 N11          4.0930    -0.7710    -0.2850 n3         1 G89      -0.792500
     14 C12          4.9400    -1.0290    -1.4450 c3         1 G89       0.234800
     15 C13          5.8310    -2.2630    -1.3040 c3         1 G89      -0.079700
     16 C14          6.6120    -2.4540    -2.6000 c3         1 G89      -0.092600
     17 C15          6.7670    -2.1680    -0.1070 c3         1 G89      -0.092600
     18 C16          2.9320    -1.6150    -0.0410 c3         1 G89       0.191800
     19 C17          1.6610    -1.1440    -0.7510 c3         1 G89       0.124300
     20 O18          1.7310    -1.2640    -2.1540 oh         1 G89      -0.651000
     21 C19          0.4080    -1.8170    -0.1690 c3         1 G89       0.099700
     22 N20         -0.7610    -1.1440    -0.6770 ns         1 G89      -0.498900
     23 C32          0.3370    -3.3270    -0.4440 c3         1 G89      -0.050100
     24 C33         -2.0680    -4.0750    -0.4510 ca         1 G89      -0.099000
     25 C34         -3.1840    -4.6020     0.1870 ca         1 G89      -0.106500
     26 C35         -3.1000    -5.0200     1.5080 ca         1 G89      -0.104000
     27 C36         -1.8920    -4.9090     2.1850 ca         1 G89      -0.106500
     28 C37         -0.7820    -4.3780     1.5450 ca         1 G89      -0.099000
     29 C38         -0.8550    -3.9520     0.2210 ca         1 G89      -0.083300
     30 S8           4.4320     0.4080     0.8060 sy         1 G89       1.199600
     31 O9           5.6040     1.1220     0.3210 o          1 G89      -0.545500
     32 O10          4.4630    -0.1550     2.1510 o          1 G89      -0.545500
     33 C5           3.0330     1.4780     0.7310 ca         1 G89      -0.342500
     34 C6           2.8880     2.3170    -0.3650 ca         1 G89       0.023500
     35 C4           2.0270     1.3910     1.6890 ca         1 G89       0.023500
     36 C7           1.7360     3.0690    -0.5180 ca         1 G89      -0.197000
     37 C3           0.8730     2.1330     1.5360 ca         1 G89      -0.197000
     38 C2           0.7150     2.9740     0.4310 ca         1 G89       0.197100
     39 O39         -0.4380     3.6460     0.3630 os         1 G89      -0.333100
     40 C40         -0.7250     4.4200    -0.7880 c3         1 G89       0.143900
     41 H24         -4.2870    -0.2540     0.6570 h1         1 G89       0.063700
     42 H25         -3.2390     1.5300     1.8560 hc         1 G89       0.079700
     43 H25A        -2.6340     2.2710     0.3840 hc         1 G89       0.079700
     44 H26         -5.2090     2.8190     1.6760 h1         1 G89       0.057700
     45 H28         -6.3270     4.7310     0.2690 h1         1 G89       0.052200
     46 H28A        -5.4490     5.0780    -1.2370 h1         1 G89       0.052200
     47 H29         -6.0570     2.9430    -2.1430 h1         1 G89       0.042700
     48 H30         -6.4740     1.3640     0.2780 hc         1 G89       0.085700
     49 H31         -4.2650     1.5020    -1.8270 hc         1 G89       0.061200
     50 H31A        -5.3470     0.1420    -1.5120 hc         1 G89       0.061200
     51 HO41        -8.0940     3.7350    -1.5280 ho         1 G89       0.507000
     52 H12          4.2930    -1.1370    -2.3160 h1         1 G89       0.063700
     53 H12A         5.5620    -0.1540    -1.6320 h1         1 G89       0.063700
     54 H13          5.1880    -3.1410    -1.1700 hc         1 G89       0.040700
     55 H14          7.3020    -1.6230    -2.7660 hc         1 G89       0.038867
     56 H14A         7.2010    -3.3700    -2.5680 hc         1 G89       0.038867
     57 H14B         5.9500    -2.5150    -3.4650 hc         1 G89       0.038867
     58 H15          6.2220    -2.0980     0.8350 hc         1 G89       0.038867
     59 H15A         7.4040    -3.0520    -0.0470 hc         1 G89       0.038867
     60 H15B         7.4170    -1.2940    -0.1860 hc         1 G89       0.038867
     61 H16          3.1910    -2.6340    -0.3380 h1         1 G89       0.063700
     62 H16A         2.7410    -1.6730     1.0330 h1         1 G89       0.063700
     63 H17          1.5400    -0.0760    -0.5620 h1         1 G89       0.095700
     64 HO18         1.9220    -2.1790    -2.3890 ho         1 G89       0.439000
     65 H19          0.4300    -1.6600     0.9110 h1         1 G89       0.091700
     66 HN20        -0.8560    -1.0600    -1.6780 hn         1 G89       0.332500
     67 H32          0.2890    -3.5020    -1.5220 hc         1 G89       0.049200
     68 H32A         1.2520    -3.8050    -0.0850 hc         1 G89       0.049200
     69 H33         -2.1430    -3.7620    -1.4850 ha         1 G89       0.108000
     70 H34         -4.1190    -4.6890    -0.3510 ha         1 G89       0.112500
     71 H35         -3.9680    -5.4340     2.0050 ha         1 G89       0.112000
     72 H36         -1.8130    -5.2380     3.2140 ha         1 G89       0.112500
     73 H37          0.1560    -4.2970     2.0830 ha         1 G89       0.108000
     74 H6           3.6620     2.3880    -1.1180 ha         1 G89       0.135000
     75 H4           2.1270     0.7380     2.5450 ha         1 G89       0.135000
     76 H7           1.6500     3.7180    -1.3780 ha         1 G89       0.131500
     77 H3           0.0800     2.0600     2.2690 ha         1 G89       0.131500
     78 H40         -0.0350     5.2600    -0.8960 h1         1 G89       0.048367
     79 H40A        -0.6970     3.8160    -1.6980 h1         1 G89       0.048367
     80 H40B        -1.7330     4.8010    -0.6510 h1         1 G89       0.048367
@<TRIPOS>BOND
     1     1     2 2   
     2     1     3 1   
     3     1    22 1   
     4     3     4 1   
     5     4     5 1   
     6     4    11 1   
     7     4    41 1   
     8     5     6 1   
     9     5    42 1   
    10     5    43 1   
    11     6     7 1   
    12     6    10 1   
    13     6    44 1   
    14     7     8 1   
    15     8     9 1   
    16     8    45 1   
    17     8    46 1   
    18     9    10 1   
    19     9    12 1   
    20     9    47 1   
    21    10    11 1   
    22    10    48 1   
    23    11    49 1   
    24    11    50 1   
    25    12    51 1   
    26    13    14 1   
    27    13    18 1   
    28    13    30 1   
    29    14    15 1   
    30    14    52 1   
    31    14    53 1   
    32    15    16 1   
    33    15    17 1   
    34    15    54 1   
    35    16    55 1   
    36    16    56 1   
    37    16    57 1   
    38    17    58 1   
    39    17    59 1   
    40    17    60 1   
    41    18    19 1   
    42    18    61 1   
    43    18    62 1   
    44    19    20 1   
    45    19    21 1   
    46    19    63 1   
    47    20    64 1   
    48    21    22 1   
    49    21    23 1   
    50    21    65 1   
    51    22    66 1   
    52    23    29 1   
    53    23    67 1   
    54    23    68 1   
    55    24    25 ar  
    56    24    29 ar  
    57    24    69 1   
    58    25    26 ar  
    59    25    70 1   
    60    26    27 ar  
    61    26    71 1   
    62    27    28 ar  
    63    27    72 1   
    64    28    29 ar  
    65    28    73 1   
    66    30    31 2   
    67    30    32 2   
    68    30    33 1   
    69    33    34 ar  
    70    33    35 ar  
    71    34    36 ar  
    72    34    74 1   
    73    35    37 ar  
    74    35    75 1   
    75    36    38 ar  
    76    36    76 1   
    77    37    38 ar  
    78    37    77 1   
    79    38    39 1   
    80    39    40 1   
    81    40    78 1   
    82    40    79 1   
    83    40    80 1   
@<TRIPOS>SUBSTRUCTURE
     1 G89         1 TEMP              0 ****  ****    0 ROOT
