@<TRIPOS>MOLECULE
G89
   80    83     1     0     0
SMALL
No Charge or Current Charge


@<TRIPOS>ATOM
      1 C21         -1.7670    -0.5890     0.3760 c          1 G89       0.649100
      2 O22         -1.3920    -0.3030     1.5040 o          1 G89      -0.539000
      3 O23         -2.9280    -0.1920    -0.2240 os         1 G89      -0.461100
      4 C24         -3.7270     0.7300     0.5570 c5         1 G89       0.194300
      5 C25         -3.0390     2.1370     0.5550 c5         1 G89      -0.108400
      6 C26         -4.2140     3.1500     0.3890 c5         1 G89       0.157300
      7 O27         -4.2130     3.6160    -0.9700 os         1 G89      -0.444000
      8 C28         -5.5710     3.9770    -1.3020 c5         1 G89       0.111600
      9 C29         -6.5040     3.0590    -0.4280 c5         1 G89       0.141300
     10 C30         -5.4920     2.2920     0.4800 c5         1 G89      -0.102700
     11 C31         -5.0430     0.9780    -0.2230 c5         1 G89      -0.074400
     12 O41         -7.4060     3.8250     0.3780 oh         1 G89      -0.710000
     13 N11          3.9030    -0.5860    -0.5880 n3         1 G89      -0.792500
     14 C12          4.8310    -1.4880    -1.3260 c3         1 G89       0.234800
     15 C13          5.4670    -2.6840    -0.5510 c3         1 G89      -0.079700
     16 C14          6.4060    -3.4880    -1.4800 c3         1 G89      -0.092600
     17 C15          6.2020    -2.2860     0.7500 c3         1 G89      -0.092600
     18 C16          2.7450    -1.2000     0.1250 c3         1 G89       0.191800
     19 C17          1.3750    -0.8730    -0.5350 c3         1 G89       0.124300
     20 O18          1.5900    -0.7060    -1.9460 oh         1 G89      -0.651000
     21 C19          0.2610    -1.9260    -0.2390 c3         1 G89       0.099700
     22 N20         -1.0680    -1.3630    -0.5010 ns         1 G89      -0.498900
     23 C32          0.4330    -3.2870    -0.9680 c3         1 G89      -0.050100
     24 C33         -1.6650    -4.6450    -1.4730 ca         1 G89      -0.099000
     25 C34         -2.6500    -5.5770    -1.1020 ca         1 G89      -0.106500
     26 C35         -2.6120    -6.1730     0.1700 ca         1 G89      -0.104000
     27 C36         -1.5860    -5.8370     1.0700 ca         1 G89      -0.106500
     28 C37         -0.6010    -4.9060     0.7000 ca         1 G89      -0.099000
     29 C38         -0.6350    -4.3030    -0.5730 ca         1 G89      -0.083300
     30 S8           4.5160     0.8960     0.0010 sy         1 G89       1.199600
     31 O9           5.2620     1.4900    -1.1130 o          1 G89      -0.545500
     32 O10          5.1310     0.6390     1.3060 o          1 G89      -0.545500
     33 C5           3.0220     1.8750     0.2010 ca         1 G89      -0.342500
     34 C6           2.4400     2.5010    -0.9190 ca         1 G89       0.023500
     35 C4           2.4380     2.0300     1.4740 ca         1 G89       0.023500
     36 C7           1.2850     3.2870    -0.7650 ca         1 G89      -0.197000
     37 C3           1.2800     2.8130     1.6190 ca         1 G89      -0.197000
     38 C2           0.7040     3.4500     0.5100 ca         1 G89       0.197100
     39 O39         -0.4150     4.2280     0.7230 os         1 G89      -0.333100
     40 C40         -1.0360     4.9850    -0.3320 c3         1 G89       0.143900
     41 H24         -3.9170     0.3410     1.5680 h1         1 G89       0.063700
     42 H25         -2.4990     2.3090     1.4920 hc         1 G89       0.079700
     43 H25A        -2.3100     2.2340    -0.2560 hc         1 G89       0.079700
     44 H26         -4.1930     4.0010     1.0850 h1         1 G89       0.057700
     45 H28         -5.7160     5.0410    -1.0690 h1         1 G89       0.052200
     46 H28A        -5.7320     3.8320    -2.3780 h1         1 G89       0.052200
     47 H29         -7.0720     2.3600    -1.0590 h1         1 G89       0.042700
     48 H30         -5.8410     2.1330     1.5080 hc         1 G89       0.085700
     49 H31         -4.8660     1.0960    -1.2990 hc         1 G89       0.061200
     50 H31A        -5.7640     0.1640    -0.0890 hc         1 G89       0.061200
     51 HO41        -8.0920     4.1970    -0.2260 ho         1 G89       0.507000
     52 H12          4.2820    -1.9210    -2.1720 h1         1 G89       0.063700
     53 H12A         5.6460    -0.9050    -1.7770 h1         1 G89       0.063700
     54 H13          4.6630    -3.3710    -0.2660 hc         1 G89       0.040700
     55 H14          7.2600    -2.8770    -1.7980 hc         1 G89       0.038867
     56 H14A         6.7930    -4.3770    -0.9680 hc         1 G89       0.038867
     57 H14B         5.8710    -3.8240    -2.3770 hc         1 G89       0.038867
     58 H15          5.4920    -1.9200     1.4990 hc         1 G89       0.038867
     59 H15A         6.7150    -3.1510     1.1860 hc         1 G89       0.038867
     60 H15B         6.9490    -1.5070     0.5570 hc         1 G89       0.038867
     61 H16          2.8540    -2.2880     0.1520 h1         1 G89       0.063700
     62 H16A         2.7180    -0.8820     1.1760 h1         1 G89       0.063700
     63 H17          1.0440     0.0820    -0.1060 h1         1 G89       0.095700
     64 HO18         2.5560    -0.5090    -1.9910 ho         1 G89       0.439000
     65 H19          0.3100    -2.1380     0.8380 h1         1 G89       0.091700
     66 HN20        -1.4950    -1.5070    -1.4050 hn         1 G89       0.332500
     67 H32          0.4130    -3.1230    -2.0520 hc         1 G89       0.049200
     68 H32A         1.4220    -3.7040    -0.7470 hc         1 G89       0.049200
     69 H33         -1.7050    -4.1880    -2.4590 ha         1 G89       0.108000
     70 H34         -3.4430    -5.8350    -1.8000 ha         1 G89       0.112500
     71 H35         -3.3740    -6.8930     0.4570 ha         1 G89       0.112000
     72 H36         -1.5550    -6.2980     2.0550 ha         1 G89       0.112500
     73 H37          0.1890    -4.6520     1.4030 ha         1 G89       0.108000
     74 H6           2.8800     2.3840    -1.9080 ha         1 G89       0.135000
     75 H4           2.8750     1.5520     2.3500 ha         1 G89       0.135000
     76 H7           0.8610     3.7620    -1.6440 ha         1 G89       0.131500
     77 H3           0.8320     2.9360     2.6010 ha         1 G89       0.131500
     78 H40         -0.3340     5.7180    -0.7500 h1         1 G89       0.048367
     79 H40A        -1.3790     4.3260    -1.1390 h1         1 G89       0.048367
     80 H40B        -1.9070     5.5300     0.0540 h1         1 G89       0.048367
@<TRIPOS>BOND
     1     1     2 2   
     2     1     3 1   
     3     1    22 1   
     4     3     4 1   
     5     4     5 1   
     6     4    11 1   
     7     4    41 1   
     8     5     6 1   
     9     5    42 1   
    10     5    43 1   
    11     6     7 1   
    12     6    10 1   
    13     6    44 1   
    14     7     8 1   
    15     8     9 1   
    16     8    45 1   
    17     8    46 1   
    18     9    10 1   
    19     9    12 1   
    20     9    47 1   
    21    10    11 1   
    22    10    48 1   
    23    11    49 1   
    24    11    50 1   
    25    12    51 1   
    26    13    14 1   
    27    13    18 1   
    28    13    30 1   
    29    14    15 1   
    30    14    52 1   
    31    14    53 1   
    32    15    16 1   
    33    15    17 1   
    34    15    54 1   
    35    16    55 1   
    36    16    56 1   
    37    16    57 1   
    38    17    58 1   
    39    17    59 1   
    40    17    60 1   
    41    18    19 1   
    42    18    61 1   
    43    18    62 1   
    44    19    20 1   
    45    19    21 1   
    46    19    63 1   
    47    20    64 1   
    48    21    22 1   
    49    21    23 1   
    50    21    65 1   
    51    22    66 1   
    52    23    29 1   
    53    23    67 1   
    54    23    68 1   
    55    24    25 ar  
    56    24    29 ar  
    57    24    69 1   
    58    25    26 ar  
    59    25    70 1   
    60    26    27 ar  
    61    26    71 1   
    62    27    28 ar  
    63    27    72 1   
    64    28    29 ar  
    65    28    73 1   
    66    30    31 2   
    67    30    32 2   
    68    30    33 1   
    69    33    34 ar  
    70    33    35 ar  
    71    34    36 ar  
    72    34    74 1   
    73    35    37 ar  
    74    35    75 1   
    75    36    38 ar  
    76    36    76 1   
    77    37    38 ar  
    78    37    77 1   
    79    38    39 1   
    80    39    40 1   
    81    40    78 1   
    82    40    79 1   
    83    40    80 1   
@<TRIPOS>SUBSTRUCTURE
     1 G89         1 TEMP              0 ****  ****    0 ROOT
