@<TRIPOS>MOLECULE
G8A
   42    43     1     0     0
SMALL
bcc


@<TRIPOS>ATOM
      1 C02          3.7830     0.4250    -0.0450 ca         1 G8A       0.598100
      2 C04          1.9250     1.4970     0.5570 ca         1 G8A       0.833900
      3 C06         -0.2620     0.4770     1.0870 c          1 G8A       0.827100
      4 C09         -2.9950    -1.1360     0.1450 ca         1 G8A      -0.250500
      5 C10         -3.6840    -0.6500    -0.9710 ca         1 G8A      -0.041600
      6 C11         -4.1010     0.7770    -1.1250 c          1 G8A       0.668700
      7 C13         -5.8430     2.1790    -1.8980 c3         1 G8A       0.144400
      8 C14         -7.2510     2.0050    -2.4090 c3         1 G8A      -0.098100
      9 C16         -3.9100    -1.5150    -2.0350 ca         1 G8A      -0.108000
     10 C17         -3.4440    -2.8220    -2.0000 ca         1 G8A      -0.082000
     11 C18         -2.7590    -3.2860    -0.8910 ca         1 G8A      -0.126000
     12 C19         -2.5440    -2.4450     0.1920 ca         1 G8A      -0.018000
     13 C24          3.7840     2.7360     0.2580 ca         1 G8A       0.716600
     14 C26          3.6970     5.0750     0.5640 c3         1 G8A       0.135700
     15 C27          4.5170     1.5820    -0.0700 ca         1 G8A      -0.394600
     16 I01          4.7220    -1.4020    -0.5220 i          1 G8A      -0.178800
     17 N03          2.5000     0.3500     0.2570 nb         1 G8A      -0.709000
     18 N05          0.5870     1.5350     0.8850 ns         1 G8A      -0.549400
     19 N07         -1.5620     0.9130     1.3050 ns         1 G8A      -0.654300
     20 N23          2.5060     2.6920     0.5690 nb         1 G8A      -0.849000
     21 O12         -5.3320     0.8690    -1.5770 os         1 G8A      -0.402900
     22 O15         -3.3710     1.7130    -0.9170 o          1 G8A      -0.558000
     23 O20         -3.9820     0.6740     1.7740 o          1 G8A      -0.591800
     24 O21         -2.3900    -1.0260     2.6920 o          1 G8A      -0.591800
     25 O22          0.0400    -0.6890     1.0970 o          1 G8A      -0.536100
     26 O25          4.4210     3.8860     0.2460 os         1 G8A      -0.423100
     27 S08         -2.8060    -0.1560     1.6150 sy         1 G8A       1.334900
     28 H1          -5.2020     2.6390    -2.6520 h1         1 G8A       0.053200
     29 H2          -5.8210     2.8040    -1.0040 h1         1 G8A       0.053200
     30 H3          -7.6570     2.9820    -2.6710 hc         1 G8A       0.049700
     31 H4          -7.2790     1.3810    -3.3020 hc         1 G8A       0.049700
     32 H5          -7.9010     1.5660    -1.6530 hc         1 G8A       0.049700
     33 H6          -4.4410    -1.1640    -2.9100 ha         1 G8A       0.146000
     34 H7          -3.6240    -3.4760    -2.8420 ha         1 G8A       0.140000
     35 H8          -2.3980    -4.3050    -0.8550 ha         1 G8A       0.145000
     36 H9          -2.0360    -2.8210     1.0680 ha         1 G8A       0.176000
     37 H10          2.8840     5.2450    -0.1410 h1         1 G8A       0.053033
     38 H11          3.2930     5.0360     1.5750 h1         1 G8A       0.053033
     39 H12          4.4170     5.8850     0.4900 h1         1 G8A       0.053033
     40 H13          5.5660     1.6250    -0.3180 ha         1 G8A       0.180000
     41 H14          0.2360     2.4680     1.0510 hn         1 G8A       0.345500
     42 H15         -1.8610     1.8260     0.9810 hn         1 G8A       0.357500
@<TRIPOS>BOND
     1     1    15 ar  
     2     1    16 1   
     3     1    17 ar  
     4     2    17 ar  
     5     2    18 1   
     6     2    20 ar  
     7     3    18 1   
     8     3    19 1   
     9     3    25 2   
    10     4     5 ar  
    11     4    12 ar  
    12     4    27 1   
    13     5     6 1   
    14     5     9 ar  
    15     6    21 1   
    16     6    22 2   
    17     7     8 1   
    18     7    21 1   
    19     7    28 1   
    20     7    29 1   
    21     8    30 1   
    22     8    31 1   
    23     8    32 1   
    24     9    10 ar  
    25     9    33 1   
    26    10    11 ar  
    27    10    34 1   
    28    11    12 ar  
    29    11    35 1   
    30    12    36 1   
    31    13    15 ar  
    32    13    20 ar  
    33    13    26 1   
    34    14    26 1   
    35    14    37 1   
    36    14    38 1   
    37    14    39 1   
    38    15    40 1   
    39    18    41 1   
    40    19    27 1   
    41    19    42 1   
    42    23    27 2   
    43    24    27 2   
@<TRIPOS>SUBSTRUCTURE
     1 G8A         1 TEMP              0 ****  ****    0 ROOT
