@<TRIPOS>MOLECULE
G8A
   42    43     1     0     0
SMALL
No Charge or Current Charge


@<TRIPOS>ATOM
      1 C02          3.5900     0.5280    -0.5970 ca         1 G8A       0.269800
      2 C04          1.7910     1.5320     0.3760 ca         1 G8A       0.307900
      3 C06         -0.3300     0.4350     1.1840 c          1 G8A       0.693100
      4 C09         -3.0730    -1.2280     0.3610 ca         1 G8A      -0.250500
      5 C10         -3.6000    -0.7220    -0.8690 ca         1 G8A      -0.041600
      6 C11         -3.9680     0.7330    -1.0900 c          1 G8A       0.619700
      7 C13         -5.6360     2.2190    -1.9910 c3         1 G8A       0.167600
      8 C14         -7.0050     2.1040    -2.6790 c3         1 G8A      -0.098100
      9 C16         -3.7790    -1.6150    -1.9500 ca         1 G8A      -0.090000
     10 C17         -3.4280    -2.9680    -1.8380 ca         1 G8A      -0.064000
     11 C18         -2.8910    -3.4550    -0.6390 ca         1 G8A      -0.108000
     12 C19         -2.7160    -2.5930     0.4550 ca         1 G8A       0.000000
     13 C24          3.6730     2.8110     0.1370 ca         1 G8A       0.388300
     14 C26          3.7870     5.1510     0.8710 c3         1 G8A       0.158900
     15 C27          4.3190     1.7160    -0.4510 ca         1 G8A      -0.246000
     16 I01          4.4980    -1.2080    -1.5000 i          1 G8A      -0.178800
     17 N03          2.3130     0.4260    -0.1890 nb         1 G8A      -0.183000
     18 N05          0.4470     1.4960     0.7860 ns         1 G8A      -0.315900
     19 N07         -1.5890     0.8160     1.4880 ns         1 G8A      -0.587300
     20 N23          2.3920     2.7220     0.5510 nb         1 G8A      -0.323000
     21 O12         -5.1810     0.8850    -1.7120 os         1 G8A      -0.426100
     22 O15         -3.2390     1.6710    -0.7910 o          1 G8A      -0.509000
     23 O20         -4.0370     0.7050     1.9450 o          1 G8A      -0.521000
     24 O21         -2.4580    -1.0260     2.9620 o          1 G8A      -0.521000
     25 O22          0.0640    -0.7160     1.2620 o          1 G8A      -0.536100
     26 O25          4.3850     3.9810     0.2760 os         1 G8A      -0.446300
     27 S08         -2.8770    -0.1850     1.8340 sy         1 G8A       1.193300
     28 H1          -4.9340     2.7420    -2.6550 h1         1 G8A       0.053200
     29 H2          -5.7380     2.8000    -1.0640 h1         1 G8A       0.053200
     30 H3          -7.3960     3.1010    -2.9140 hc         1 G8A       0.049700
     31 H4          -6.9200     1.5390    -3.6150 hc         1 G8A       0.049700
     32 H5          -7.7240     1.5970    -2.0260 hc         1 G8A       0.049700
     33 H6          -4.1810    -1.2510    -2.8940 ha         1 G8A       0.128000
     34 H7          -3.5660    -3.6390    -2.6840 ha         1 G8A       0.122000
     35 H8          -2.6150    -4.5030    -0.5530 ha         1 G8A       0.127000
     36 H9          -2.3040    -3.0010     1.3780 ha         1 G8A       0.158000
     37 H10          2.9110     5.4790     0.2970 h1         1 G8A       0.053033
     38 H11          3.4710     4.9470     1.9030 h1         1 G8A       0.053033
     39 H12          4.5070     5.9780     0.8940 h1         1 G8A       0.053033
     40 H13          5.3490     1.7890    -0.7840 ha         1 G8A       0.162000
     41 H14          0.0030     2.4020     0.8230 hn         1 G8A       0.179000
     42 H15         -1.8940     1.7550     1.3010 hn         1 G8A       0.357500
@<TRIPOS>BOND
     1     1    15 ar  
     2     1    16 1   
     3     1    17 ar  
     4     2    17 ar  
     5     2    18 1   
     6     2    20 ar  
     7     3    18 1   
     8     3    19 1   
     9     3    25 2   
    10     4     5 ar  
    11     4    12 ar  
    12     4    27 1   
    13     5     6 1   
    14     5     9 ar  
    15     6    21 1   
    16     6    22 2   
    17     7     8 1   
    18     7    21 1   
    19     7    28 1   
    20     7    29 1   
    21     8    30 1   
    22     8    31 1   
    23     8    32 1   
    24     9    10 ar  
    25     9    33 1   
    26    10    11 ar  
    27    10    34 1   
    28    11    12 ar  
    29    11    35 1   
    30    12    36 1   
    31    13    15 ar  
    32    13    20 ar  
    33    13    26 1   
    34    14    26 1   
    35    14    37 1   
    36    14    38 1   
    37    14    39 1   
    38    15    40 1   
    39    18    41 1   
    40    19    27 1   
    41    19    42 1   
    42    23    27 2   
    43    24    27 2   
@<TRIPOS>SUBSTRUCTURE
     1 G8A         1 TEMP              0 ****  ****    0 ROOT
