@<TRIPOS>MOLECULE
G8B
   60    63     1     0     0
SMALL
abcg2


@<TRIPOS>ATOM
      1 C1          -4.6910     0.3300     1.7340 c6         1 G8B       0.133300
      2 N2          -4.9090     1.3740    -0.4940 n3         1 G8B      -0.750500
      3 C3          -3.3620     2.2420     1.2280 c6         1 G8B       0.133300
      4 C4          -4.2320     2.5610     0.0250 c6         1 G8B       0.207800
      5 C5          -2.9270    -0.3040    -1.4350 ca         1 G8B      -0.300500
      6 C6          -3.0630    -1.6090    -0.9820 ca         1 G8B      -0.018500
      7 C8          -0.6700    -1.7410    -0.6630 cp         1 G8B      -0.063500
      8 C9          -0.5570    -0.4280    -1.1270 ca         1 G8B      -0.119000
      9 C10         -1.6730     0.2890    -1.5150 ca         1 G8B      -0.018500
     10 C11          0.5360    -2.4820    -0.2630 cp         1 G8B       0.258500
     11 C12          0.6000    -3.8770    -0.1640 ca         1 G8B       0.402900
     12 C13          2.8030    -3.8070     0.4500 ca         1 G8B       0.642900
     13 C14          2.7540    -2.3890     0.3380 ca         1 G8B       0.157500
     14 C15          3.9360    -1.5130     0.5910 c          1 G8B       0.534600
     15 C16          4.4830     0.9090     0.5600 ca         1 G8B      -0.045000
     16 C17          3.8630     2.1590     0.3470 ca         1 G8B       0.092100
     17 C18          4.6020     3.3280     0.4300 ca         1 G8B      -0.170000
     18 C19          5.9610     3.2720     0.7290 ca         1 G8B      -0.099000
     19 C20          6.5730     2.0510     0.9420 ca         1 G8B      -0.118000
     20 C21          5.8400     0.8710     0.8580 ca         1 G8B      -0.107000
     21 C22         -5.5930     0.6060     0.5450 c6         1 G8B       0.207800
     22 C23          1.8350     3.3110    -0.1370 c3         1 G8B       0.155900
     23 C7          -1.9390    -2.3180    -0.5950 ca         1 G8B      -0.119000
     24 N1          -4.1320     1.5630     2.2510 n3         1 G8B      -0.707600
     25 N3           1.6950    -4.5130     0.1810 nb         1 G8B      -0.749000
     26 N4           1.6360    -1.7920    -0.0110 nb         1 G8B      -0.610000
     27 N5           3.6540    -0.2050     0.4430 ns         1 G8B      -0.112000
     28 N6           3.8870    -4.4910     0.8120 nv         1 G8B      -1.048900
     29 O1          -5.4000    -0.3140    -2.2550 o          1 G8B      -0.537500
     30 O2          -3.9590     1.6800    -2.7730 o          1 G8B      -0.537500
     31 O3           5.0300    -1.9720     0.8970 o          1 G8B      -0.628100
     32 O4           2.5440     2.1050     0.0690 os         1 G8B      -0.363100
     33 S1          -4.3720     0.6330    -1.8530 sy         1 G8B       1.172600
     34 H1          -5.2900    -0.1480     2.5140 h1         1 G8B       0.040950
     35 H2          -3.9030    -0.3900     1.4550 h1         1 G8B       0.040950
     36 H3          -2.4850     1.6500     0.9120 h1         1 G8B       0.040950
     37 H4          -2.9790     3.1820     1.6320 h1         1 G8B       0.040950
     38 H5          -3.6430     3.0370    -0.7560 h1         1 G8B       0.074200
     39 H6          -5.0110     3.2710     0.3150 h1         1 G8B       0.074200
     40 H7          -4.0340    -2.0810    -0.9180 ha         1 G8B       0.133500
     41 H8           0.4170     0.0340    -1.2050 ha         1 G8B       0.125000
     42 H9          -1.5540     1.2980    -1.8850 ha         1 G8B       0.133500
     43 H10         -0.2610    -4.4960    -0.3890 h4         1 G8B       0.032100
     44 H11          4.1360     4.2890     0.2640 ha         1 G8B       0.117000
     45 H12          6.5290     4.1900     0.7950 ha         1 G8B       0.115000
     46 H13         -2.4830     0.6770     3.2760 h1         1 G8B       0.034700
     47 H14         -2.9790     2.2820     3.8350 h1         1 G8B       0.034700
     48 H15         -3.9710     0.8730     4.2140 h1         1 G8B       0.034700
     49 H16          7.6280     2.0010     1.1730 ha         1 G8B       0.118000
     50 H17          6.3330    -0.0720     1.0280 ha         1 G8B       0.147000
     51 H18         -5.9840    -0.3240     0.1380 h1         1 G8B       0.074200
     52 H19         -6.4520     1.1980     0.8690 h1         1 G8B       0.074200
     53 H20          1.8840     3.9630     0.7380 h1         1 G8B       0.041367
     54 H21          2.2050     3.8550    -1.0090 h1         1 G8B       0.041367
     55 H22          0.7990     3.0320    -0.3110 h1         1 G8B       0.041367
     56 H23         -2.0730    -3.3270    -0.2300 ha         1 G8B       0.125000
     57 H25          2.6900    -0.0180     0.1980 hn         1 G8B       0.196000
     58 H26          4.7600    -4.0190     0.9740 hn         1 G8B       0.521000
     59 H27          3.8520    -5.4960     0.8220 hn         1 G8B       0.521000
     60 C2          -3.3500     1.3330     3.4440 c3         1 G8B       0.150100
@<TRIPOS>BOND
     1     1    21 1   
     2     1    24 1   
     3     1    34 1   
     4     1    35 1   
     5     2     4 1   
     6     2    21 1   
     7     2    33 1   
     8     3     4 1   
     9     3    24 1   
    10     3    36 1   
    11     3    37 1   
    12     4    38 1   
    13     4    39 1   
    14     5     6 ar  
    15     5     9 ar  
    16     5    33 1   
    17     6    23 ar  
    18     6    40 1   
    19     7     8 ar  
    20     7    10 1   
    21     7    23 ar  
    22     8     9 ar  
    23     8    41 1   
    24     9    42 1   
    25    10    11 ar  
    26    10    26 ar  
    27    11    25 ar  
    28    11    43 1   
    29    12    13 ar  
    30    12    25 ar  
    31    12    28 1   
    32    13    14 1   
    33    13    26 ar  
    34    14    27 1   
    35    14    31 2   
    36    15    16 ar  
    37    15    20 ar  
    38    15    27 1   
    39    16    17 ar  
    40    16    32 1   
    41    17    18 ar  
    42    17    44 1   
    43    18    19 ar  
    44    18    45 1   
    45    19    20 ar  
    46    19    49 1   
    47    20    50 1   
    48    21    51 1   
    49    21    52 1   
    50    22    32 1   
    51    22    53 1   
    52    22    54 1   
    53    22    55 1   
    54    23    56 1   
    55    24    60 1   
    56    27    57 1   
    57    28    58 1   
    58    28    59 1   
    59    29    33 2   
    60    30    33 2   
    61    46    60 1   
    62    47    60 1   
    63    48    60 1   
@<TRIPOS>SUBSTRUCTURE
     1 G8B         1 TEMP              0 ****  ****    0 ROOT
