@<TRIPOS>MOLECULE
G8B
   60    63     1     0     0
SMALL
No Charge or Current Charge


@<TRIPOS>ATOM
      1 C1          -3.9030     2.4370     1.3930 c6         1 G8B       0.133300
      2 N2          -5.0250     0.6030     0.0310 n3         1 G8B      -0.750500
      3 C3          -6.0690     2.9110     0.3230 c6         1 G8B       0.133300
      4 C4          -6.2990     1.3750     0.1220 c6         1 G8B       0.207800
      5 C5          -2.8160    -0.4310    -1.2090 ca         1 G8B      -0.300500
      6 C6          -2.9460    -1.8140    -0.9890 ca         1 G8B      -0.018500
      7 C8          -0.5040    -2.0320    -0.7080 cp         1 G8B      -0.063500
      8 C9          -0.4050    -0.6290    -0.9280 ca         1 G8B      -0.119000
      9 C10         -1.5400     0.1610    -1.1750 ca         1 G8B      -0.018500
     10 C11          0.7220    -2.8720    -0.4410 cp         1 G8B       0.258500
     11 C12          0.7330    -4.3050    -0.5600 ca         1 G8B       0.402900
     12 C13          2.9270    -4.3960     0.0420 ca         1 G8B       0.642900
     13 C14          2.9780    -2.9690     0.1590 ca         1 G8B       0.157500
     14 C15          4.2750    -2.2700     0.5340 c          1 G8B       0.534600
     15 C16          5.0610     0.1450     1.0100 ca         1 G8B      -0.045000
     16 C17          4.5690     1.4700     1.0150 ca         1 G8B       0.092100
     17 C18          5.4300     2.5430     1.3380 ca         1 G8B      -0.170000
     18 C19          6.7750     2.2960     1.6570 ca         1 G8B      -0.099000
     19 C20          7.2660     0.9820     1.6550 ca         1 G8B      -0.118000
     20 C21          6.4170    -0.0900     1.3340 ca         1 G8B      -0.107000
     21 C22         -4.1530     0.9050     1.2070 c6         1 G8B       0.207800
     22 C23          2.6370     2.9790     0.6690 c3         1 G8B       0.155900
     23 C7          -1.8070    -2.6010    -0.7420 ca         1 G8B      -0.119000
     24 N1          -5.1820     3.2080     1.4910 n3         1 G8B      -0.707600
     25 N3           1.8340    -5.0740    -0.3190 nb         1 G8B      -0.749000
     26 N4           1.8580    -2.2080    -0.0870 nb         1 G8B      -0.610000
     27 N5           4.1450    -0.8940     0.6770 ns         1 G8B      -0.112000
     28 N6           3.9210    -5.2760     0.2640 nv         1 G8B      -1.048900
     29 O1          -5.1850    -0.2180    -2.3550 o          1 G8B      -0.537500
     30 O2          -3.8910     1.9410    -1.8500 o          1 G8B      -0.537500
     31 O3           5.3410    -2.8680     0.6810 o          1 G8B      -0.628100
     32 O4           3.2380     1.6710     0.6950 os         1 G8B      -0.363100
     33 S1          -4.2850     0.5720    -1.5060 sy         1 G8B       1.172600
     34 H1          -3.3050     2.5830     2.3050 h1         1 G8B       0.040950
     35 H2          -3.2960     2.8080     0.5550 h1         1 G8B       0.040950
     36 H3          -5.6410     3.3350    -0.5960 h1         1 G8B       0.040950
     37 H4          -7.0480     3.3920     0.4630 h1         1 G8B       0.040950
     38 H5          -6.9290     1.2120    -0.7650 h1         1 G8B       0.074200
     39 H6          -6.8820     1.0140     0.9820 h1         1 G8B       0.074200
     40 H7          -3.9290    -2.2830    -0.9980 ha         1 G8B       0.133500
     41 H8           0.5660    -0.1400    -0.9120 ha         1 G8B       0.125000
     42 H9          -1.4190     1.2310    -1.3380 ha         1 G8B       0.133500
     43 H10         -0.1590    -4.8490    -0.8650 h4         1 G8B       0.032100
     44 H11          5.0760     3.5700     1.3480 ha         1 G8B       0.117000
     45 H12          7.4370     3.1230     1.9060 ha         1 G8B       0.115000
     46 H13         -4.4430     5.0980     0.8340 h1         1 G8B       0.034700
     47 H14         -5.9230     5.1780     1.8200 h1         1 G8B       0.034700
     48 H15         -4.3610     4.8360     2.5930 h1         1 G8B       0.034700
     49 H16          8.3090     0.7930     1.9040 ha         1 G8B       0.118000
     50 H17          6.8310    -1.0940     1.3460 ha         1 G8B       0.147000
     51 H18         -3.1900     0.3800     1.1590 h1         1 G8B       0.074200
     52 H19         -4.6440     0.5410     2.1220 h1         1 G8B       0.074200
     53 H20          2.6980     3.4560     1.6560 h1         1 G8B       0.041367
     54 H21          3.1360     3.6240    -0.0660 h1         1 G8B       0.041367
     55 H22          1.5780     2.9050     0.3930 h1         1 G8B       0.041367
     56 H23         -1.9540    -3.6620    -0.5620 ha         1 G8B       0.125000
     57 H25          3.2030    -0.5600     0.5060 hn         1 G8B       0.196000
     58 H26          4.8630    -4.8910     0.3110 hn         1 G8B       0.521000
     59 H27          3.8080    -6.1860    -0.1660 hn         1 G8B       0.521000
     60 C2          -4.9650     4.6560     1.6940 c3         1 G8B       0.150100
@<TRIPOS>BOND
     1     1    21 1   
     2     1    24 1   
     3     1    34 1   
     4     1    35 1   
     5     2     4 1   
     6     2    21 1   
     7     2    33 1   
     8     3     4 1   
     9     3    24 1   
    10     3    36 1   
    11     3    37 1   
    12     4    38 1   
    13     4    39 1   
    14     5     6 ar  
    15     5     9 ar  
    16     5    33 1   
    17     6    23 ar  
    18     6    40 1   
    19     7     8 ar  
    20     7    10 1   
    21     7    23 ar  
    22     8     9 ar  
    23     8    41 1   
    24     9    42 1   
    25    10    11 ar  
    26    10    26 ar  
    27    11    25 ar  
    28    11    43 1   
    29    12    13 ar  
    30    12    25 ar  
    31    12    28 1   
    32    13    14 1   
    33    13    26 ar  
    34    14    27 1   
    35    14    31 2   
    36    15    16 ar  
    37    15    20 ar  
    38    15    27 1   
    39    16    17 ar  
    40    16    32 1   
    41    17    18 ar  
    42    17    44 1   
    43    18    19 ar  
    44    18    45 1   
    45    19    20 ar  
    46    19    49 1   
    47    20    50 1   
    48    21    51 1   
    49    21    52 1   
    50    22    32 1   
    51    22    53 1   
    52    22    54 1   
    53    22    55 1   
    54    23    56 1   
    55    24    60 1   
    56    27    57 1   
    57    28    58 1   
    58    28    59 1   
    59    29    33 2   
    60    30    33 2   
    61    46    60 1   
    62    47    60 1   
    63    48    60 1   
@<TRIPOS>SUBSTRUCTURE
     1 G8B         1 TEMP              0 ****  ****    0 ROOT
