@<TRIPOS>MOLECULE
G8D
   41    43     1     0     0
SMALL
No Charge or Current Charge


@<TRIPOS>ATOM
      1 O3B          6.3070     0.8900    -1.6820 o          1 G8D      -0.952833
      2 PB           5.5210    -0.3060    -2.0930 p5         1 G8D       1.348900
      3 O2B          5.4040    -0.2870    -3.5780 o          1 G8D      -0.952833
      4 O1B          6.2320    -1.5580    -1.7130 o          1 G8D      -0.952833
      5 O3A          4.0560    -0.2280    -1.5140 os         1 G8D      -0.702800
      6 PA           3.7830    -0.7420    -0.0410 p5         1 G8D       1.451800
      7 O1A          4.7540    -0.2460     0.9840 o          1 G8D      -0.885500
      8 O2A          3.5730    -2.2200     0.0450 o          1 G8D      -0.885500
      9 O5           2.3830     0.0400     0.1650 os         1 G8D      -0.547400
     10 C5           1.1650    -0.4590    -0.4100 c3         1 G8D       0.224600
     11 C4           0.5060    -1.5220     0.5280 c5         1 G8D       0.158300
     12 O4          -0.3320    -0.8480     1.5120 os         1 G8D      -0.399000
     13 C3          -0.4690    -2.4880    -0.2280 c5         1 G8D       0.097300
     14 O3          -0.7660    -3.6880     0.5010 oh         1 G8D      -0.719000
     15 C2          -1.7270    -1.5830    -0.3180 c5         1 G8D       0.064300
     16 O2          -2.9150    -2.3400    -0.6420 oh         1 G8D      -0.732000
     17 C1          -1.7220    -0.9820     1.1310 c5         1 G8D       0.355700
     18 N9          -2.4630     0.2960     1.0710 n          1 G8D      -0.277000
     19 C8          -1.9160     1.5820     1.2140 c          1 G8D       0.588000
     20 O8          -0.7610     1.9270     1.3910 o          1 G8D      -0.484000
     21 C9          -3.8290     0.3850     0.8770 cc         1 G8D       0.306200
     22 N3          -4.7360    -0.6270     0.6730 nc         1 G8D      -0.673300
     23 C10         -5.9640    -0.1850     0.5260 cd         1 G8D       0.705800
     24 N2          -6.8830    -1.1180     0.3340 nv         1 G8D      -1.064200
     25 N1          -6.3910     1.0960     0.5370 ns         1 G8D      -0.445400
     26 C6          -5.5610     2.1550     0.7170 c          1 G8D       0.609200
     27 O6          -5.9380     3.3170     0.7280 o          1 G8D      -0.585000
     28 C7          -4.1750     1.7010     0.8950 cd         1 G8D      -0.241600
     29 N7          -3.0010     2.4090     1.1010 ns         1 G8D      -0.484600
     30 H4           0.4630     0.3640    -0.5900 h1         1 G8D       0.008700
     31 H5           1.3730    -0.9250    -1.3820 h1         1 G8D       0.008700
     32 H6           1.2860    -2.0890     1.0490 h1         1 G8D       0.096700
     33 H7          -0.0880    -2.7390    -1.2280 h1         1 G8D       0.056700
     34 H8          -1.6990    -3.8930     0.2490 ho         1 G8D       0.484000
     35 H9          -1.5720    -0.7840    -1.0580 h1         1 G8D       0.093700
     36 H10         -3.6810    -1.8140    -0.2780 ho         1 G8D       0.493000
     37 H11         -2.2440    -1.6350     1.8420 h2         1 G8D       0.070700
     38 H12         -6.5130    -2.0410     0.1490 hn         1 G8D       0.492000
     39 H13         -7.7120    -0.8620    -0.1890 hn         1 G8D       0.492000
     40 H14         -7.3690     1.3060     0.4260 hn         1 G8D       0.304500
     41 H15         -2.8930     3.4210     1.1690 hn         1 G8D       0.473000
@<TRIPOS>BOND
     1     1     2 1   
     2     2     3 1   
     3     2     4 1   
     4     2     5 1   
     5     5     6 1   
     6     6     7 1   
     7     6     8 1   
     8     6     9 1   
     9     9    10 1   
    10    10    11 1   
    11    10    30 1   
    12    10    31 1   
    13    11    12 1   
    14    11    13 1   
    15    11    32 1   
    16    12    17 1   
    17    13    14 1   
    18    13    15 1   
    19    13    33 1   
    20    14    34 1   
    21    15    16 1   
    22    15    17 1   
    23    15    35 1   
    24    16    36 1   
    25    17    18 1   
    26    17    37 1   
    27    18    19 1   
    28    18    21 1   
    29    19    20 2   
    30    19    29 1   
    31    21    22 1   
    32    21    28 2   
    33    22    23 2   
    34    23    24 1   
    35    23    25 1   
    36    24    38 1   
    37    24    39 1   
    38    25    26 1   
    39    25    40 1   
    40    26    27 2   
    41    26    28 1   
    42    28    29 1   
    43    29    41 1   
@<TRIPOS>SUBSTRUCTURE
     1 G8D         1 TEMP              0 ****  ****    0 ROOT
