@<TRIPOS>MOLECULE
G8D
   41    43     1     0     0
SMALL
bcc


@<TRIPOS>ATOM
      1 O3B          5.7850     1.2470     1.6670 o          1 G8D      -0.952833
      2 PB           5.1070     1.8720     0.4580 p5         1 G8D       1.348900
      3 O2B          4.6240     3.3000     0.6680 o          1 G8D      -0.952833
      4 O1B          5.7910     1.6130    -0.8760 o          1 G8D      -0.952833
      5 O3A          3.6040     1.0240     0.3390 os         1 G8D      -0.702800
      6 PA           3.3610    -0.2390    -0.6180 p5         1 G8D       1.451800
      7 O1A          4.3770    -1.3310    -0.4260 o          1 G8D      -0.885500
      8 O2A          2.9970     0.1650    -2.0190 o          1 G8D      -0.885500
      9 O5           1.9610    -0.7070     0.1580 os         1 G8D      -0.524200
     10 C5           1.2490    -1.7790    -0.4040 c3         1 G8D       0.201400
     11 C4           0.1650    -2.1960     0.5680 c5         1 G8D       0.135100
     12 O4          -0.7540    -1.1240     0.8030 os         1 G8D      -0.352600
     13 C3          -0.6770    -3.3620     0.0620 c5         1 G8D       0.074100
     14 O3          -1.1500    -4.0950     1.1650 oh         1 G8D      -0.596800
     15 C2          -1.8250    -2.6330    -0.6390 c5         1 G8D       0.041100
     16 O2          -3.0150    -3.3660    -0.7200 oh         1 G8D      -0.609800
     17 C1          -2.0210    -1.4400     0.2950 c5         1 G8D       0.332500
     18 N9          -2.6220    -0.2800    -0.3080 n          1 G8D      -0.344000
     19 C8          -2.1590     0.3830    -1.4510 c          1 G8D       0.797500
     20 O8          -1.2320     0.0450    -2.1640 o          1 G8D      -0.559500
     21 C9          -3.6780     0.4150     0.2270 cc         1 G8D       0.306200
     22 N3          -4.3510     0.0750     1.3270 nc         1 G8D      -0.673300
     23 C10         -5.3220     0.9050     1.6360 cd         1 G8D       0.705800
     24 N2          -6.0540     0.6920     2.7350 nv         1 G8D      -0.953800
     25 N1          -5.6100     2.0080     0.8940 ns         1 G8D      -0.512400
     26 C6          -4.9370     2.4120    -0.2680 c          1 G8D       0.751700
     27 O6          -5.2670     3.4260    -0.8680 o          1 G8D      -0.660500
     28 C7          -3.9040     1.5030    -0.5730 cd         1 G8D      -0.241600
     29 N7          -2.9660     1.4660    -1.5920 ns         1 G8D      -0.438100
     30 H4           0.8150    -1.5040    -1.3720 h1         1 G8D       0.008700
     31 H5           1.8970    -2.6500    -0.5700 h1         1 G8D       0.008700
     32 H6           0.6350    -2.4600     1.5220 h1         1 G8D       0.096700
     33 H7          -0.1150    -4.0010    -0.6310 h1         1 G8D       0.056700
     34 H8          -1.9640    -4.5370     0.8940 ho         1 G8D       0.385000
     35 H9          -1.4870    -2.3000    -1.6230 h1         1 G8D       0.093700
     36 H10         -2.9880    -3.9120    -1.5120 ho         1 G8D       0.394000
     37 H11         -2.7030    -1.7290     1.1040 h2         1 G8D       0.070700
     38 H12         -5.9500    -0.1860     3.2130 hn         1 G8D       0.436800
     39 H13         -6.8910     1.2180     2.9200 hn         1 G8D       0.436800
     40 H14         -6.3650     2.6110     1.1960 hn         1 G8D       0.304500
     41 H15         -2.8770     2.1290    -2.3450 hn         1 G8D       0.359500
@<TRIPOS>BOND
     1     1     2 1   
     2     2     3 1   
     3     2     4 1   
     4     2     5 1   
     5     5     6 1   
     6     6     7 1   
     7     6     8 1   
     8     6     9 1   
     9     9    10 1   
    10    10    11 1   
    11    10    30 1   
    12    10    31 1   
    13    11    12 1   
    14    11    13 1   
    15    11    32 1   
    16    12    17 1   
    17    13    14 1   
    18    13    15 1   
    19    13    33 1   
    20    14    34 1   
    21    15    16 1   
    22    15    17 1   
    23    15    35 1   
    24    16    36 1   
    25    17    18 1   
    26    17    37 1   
    27    18    19 1   
    28    18    21 1   
    29    19    20 2   
    30    19    29 1   
    31    21    22 1   
    32    21    28 2   
    33    22    23 2   
    34    23    24 1   
    35    23    25 1   
    36    24    38 1   
    37    24    39 1   
    38    25    26 1   
    39    25    40 1   
    40    26    27 2   
    41    26    28 1   
    42    28    29 1   
    43    29    41 1   
@<TRIPOS>SUBSTRUCTURE
     1 G8D         1 TEMP              0 ****  ****    0 ROOT
