@<TRIPOS>MOLECULE
G8E
   51    54     1     0     0
SMALL
No Charge or Current Charge


@<TRIPOS>ATOM
      1 C1         -17.3330     0.0660   -11.4910 c6         1 G8E       0.154600
      2 C10        -12.5950     3.3510    -6.2250 cp         1 G8E       0.259500
      3 C11        -12.1400     4.5210    -6.9260 ca         1 G8E       0.402900
      4 C12        -11.7390     5.6080    -4.9660 ca         1 G8E       0.639900
      5 C13        -12.2000     4.4770    -4.2160 ca         1 G8E       0.153500
      6 C14        -12.2400     4.5240    -2.6970 c          1 G8E       0.534600
      7 C15        -12.7950     2.9290    -0.7460 ca         1 G8E      -0.074000
      8 C16        -12.5360     3.7710     0.3580 ca         1 G8E      -0.098000
      9 C17        -12.7400     3.2600     1.6510 ca         1 G8E      -0.136000
     10 C18        -13.1920     1.9400     1.8090 ca         1 G8E       0.306900
     11 C19        -13.2450     1.6150    -0.4840 ca         1 G8E       0.291900
     12 C2         -18.4560    -0.6090    -9.4700 c6         1 G8E       0.154600
     13 C20        -15.9460    -0.2140   -10.8440 c6         1 G8E       0.155800
     14 C3         -17.0920    -0.9030    -8.7810 c6         1 G8E       0.155800
     15 C4         -13.9710    -0.2560    -8.2660 ca         1 G8E      -0.313500
     16 C5         -14.3060    -0.0310    -6.9180 ca         1 G8E      -0.015000
     17 C6         -13.8610     1.1310    -6.2650 ca         1 G8E      -0.117500
     18 C7         -13.0680     2.1050    -6.9330 cp         1 G8E      -0.063500
     19 C8         -12.7350     1.8470    -8.2910 ca         1 G8E      -0.117500
     20 C9         -13.1770     0.6860    -8.9480 ca         1 G8E      -0.015000
     21 N1         -16.0370    -1.2590    -9.7780 n3         1 G8E      -0.725500
     22 N2         -11.7100     5.6550    -6.3000 nb         1 G8E      -0.740000
     23 N3         -12.6310     3.3410    -4.8620 nb         1 G8E      -0.608000
     24 N4         -12.6270     3.3250    -2.1060 ns         1 G8E      -0.117000
     25 N5         -13.4430     1.1220     0.7610 nb         1 G8E      -0.641000
     26 N6         -11.2720     6.7770    -4.4890 nv         1 G8E      -1.052900
     27 O1         -18.3000     0.4230   -10.4740 os         1 G8E      -0.453000
     28 O2         -13.6650    -2.0380   -10.2480 o          1 G8E      -0.539500
     29 O3         -14.8600    -2.7840    -8.1230 o          1 G8E      -0.539500
     30 O4         -11.9710     5.5360    -2.0500 o          1 G8E      -0.625100
     31 S1         -14.5430    -1.7450    -9.1090 sy         1 G8E       1.182600
     32 H1         -17.2490     0.8900   -12.2140 h1         1 G8E       0.059950
     33 H2         -17.6830    -0.8270   -12.0280 h1         1 G8E       0.059950
     34 H3         -12.1300     4.5550    -8.0130 h4         1 G8E       0.033100
     35 H4         -12.1840     4.7920     0.2400 ha         1 G8E       0.152000
     36 H5         -12.5520     3.8760     2.5270 ha         1 G8E       0.126000
     37 H6         -13.3570     1.5230     2.8020 h4         1 G8E       0.023100
     38 H7         -13.4570     0.9310    -1.3060 h4         1 G8E       0.017100
     39 H8         -18.8400    -1.5230    -9.9440 h1         1 G8E       0.059950
     40 H9         -19.1900    -0.2770    -8.7220 h1         1 G8E       0.059950
     41 H10        -15.2540    -0.5260   -11.6400 h1         1 G8E       0.064200
     42 H11        -16.7980    -0.0130    -8.2050 h1         1 G8E       0.064200
     43 H12        -14.9140    -0.7500    -6.3700 ha         1 G8E       0.135500
     44 H13        -14.1450     1.2770    -5.2260 ha         1 G8E       0.122500
     45 H14        -12.1140     2.5410    -8.8500 ha         1 G8E       0.122500
     46 H15        -12.8980     0.5240    -9.9890 ha         1 G8E       0.135500
     47 H16        -12.8260     2.5950    -2.7800 hn         1 G8E       0.184000
     48 H17        -11.3030     7.5530    -5.1390 hn         1 G8E       0.525500
     49 H18        -11.4640     6.9790    -3.5090 hn         1 G8E       0.525500
     50 H21        -15.5600     0.7290   -10.4310 h1         1 G8E       0.064200
     51 H22        -17.2420    -1.7200    -8.0600 h1         1 G8E       0.064200
@<TRIPOS>BOND
     1     1    13 1   
     2     1    27 1   
     3     1    32 1   
     4     1    33 1   
     5     2     3 ar  
     6     2    18 1   
     7     2    23 ar  
     8     3    22 ar  
     9     3    34 1   
    10     4     5 ar  
    11     4    22 ar  
    12     4    26 1   
    13     5     6 1   
    14     5    23 ar  
    15     6    24 1   
    16     6    30 2   
    17     7     8 ar  
    18     7    11 ar  
    19     7    24 1   
    20     8     9 ar  
    21     8    35 1   
    22     9    10 ar  
    23     9    36 1   
    24    10    25 ar  
    25    10    37 1   
    26    11    25 ar  
    27    11    38 1   
    28    12    14 1   
    29    12    27 1   
    30    12    39 1   
    31    12    40 1   
    32    13    21 1   
    33    13    41 1   
    34    13    50 1   
    35    14    21 1   
    36    14    42 1   
    37    14    51 1   
    38    15    16 ar  
    39    15    20 ar  
    40    15    31 1   
    41    16    17 ar  
    42    16    43 1   
    43    17    18 ar  
    44    17    44 1   
    45    18    19 ar  
    46    19    20 ar  
    47    19    45 1   
    48    20    46 1   
    49    21    31 1   
    50    24    47 1   
    51    26    48 1   
    52    26    49 1   
    53    28    31 2   
    54    29    31 2   
@<TRIPOS>SUBSTRUCTURE
     1 G8E         1 TEMP              0 ****  ****    0 ROOT
