@<TRIPOS>MOLECULE
G8E
   51    54     1     0     0
SMALL
abcg2


@<TRIPOS>ATOM
      1 C1         -17.4360    -0.0820   -11.3230 c6         1 G8E       0.154600
      2 C10        -12.5080     3.3780    -6.2470 cp         1 G8E       0.259500
      3 C11        -12.0940     4.5350    -6.9270 ca         1 G8E       0.402900
      4 C12        -11.6780     5.6340    -4.9580 ca         1 G8E       0.639900
      5 C13        -12.1250     4.4760    -4.2550 ca         1 G8E       0.153500
      6 C14        -12.1810     4.4300    -2.7640 c          1 G8E       0.534600
      7 C15        -12.9030     2.9000    -0.9460 ca         1 G8E      -0.074000
      8 C16        -12.5350     3.6600     0.1660 ca         1 G8E      -0.098000
      9 C17        -12.8240     3.1590     1.4270 ca         1 G8E      -0.136000
     10 C18        -13.4630     1.9330     1.5510 ca         1 G8E       0.306900
     11 C19        -13.5430     1.6730    -0.7190 ca         1 G8E       0.291900
     12 C2         -18.4120    -0.8260    -9.3230 c6         1 G8E       0.154600
     13 C20        -16.0490    -0.0790   -10.7040 c6         1 G8E       0.155800
     14 C3         -17.0650    -0.8530    -8.6200 c6         1 G8E       0.155800
     15 C4         -13.8620    -0.1500    -8.2290 ca         1 G8E      -0.313500
     16 C5         -14.1660     0.0530    -6.8830 ca         1 G8E      -0.015000
     17 C6         -13.7160     1.1990    -6.2490 ca         1 G8E      -0.117500
     18 C7         -12.9630     2.1570    -6.9390 cp         1 G8E      -0.063500
     19 C8         -12.6600     1.9270    -8.2870 ca         1 G8E      -0.117500
     20 C9         -13.1100     0.7860    -8.9330 ca         1 G8E      -0.015000
     21 N1         -16.0180    -1.0870    -9.6290 n3         1 G8E      -0.725500
     22 N2         -11.6920     5.6280    -6.3060 nb         1 G8E      -0.740000
     23 N3         -12.5200     3.3990    -4.9150 nb         1 G8E      -0.608000
     24 N4         -12.6810     3.2680    -2.2740 ns         1 G8E      -0.117000
     25 N5         -13.8170     1.1980     0.4910 nb         1 G8E      -0.641000
     26 N6         -11.2400     6.7430    -4.3480 nv         1 G8E      -1.052900
     27 O1         -18.4420     0.1650   -10.3460 os         1 G8E      -0.453000
     28 O2         -13.7210    -1.8100   -10.2420 o          1 G8E      -0.539500
     29 O3         -14.7550    -2.6020    -8.1170 o          1 G8E      -0.539500
     30 O4         -11.8090     5.3760    -2.0650 o          1 G8E      -0.625100
     31 S1         -14.5330    -1.5480    -9.0780 sy         1 G8E       1.182600
     32 H1         -17.5110     0.7130   -12.0640 h1         1 G8E       0.059950
     33 H2         -17.6220    -1.0470   -11.8100 h1         1 G8E       0.059950
     34 H3         -12.1090     4.5800    -8.0090 h4         1 G8E       0.033100
     35 H4         -12.0390     4.6080     0.0410 ha         1 G8E       0.152000
     36 H5         -12.5530     3.7220     2.3110 ha         1 G8E       0.126000
     37 H6         -13.6980     1.5260     2.5270 h4         1 G8E       0.023100
     38 H7         -13.8400     1.0630    -1.5680 h4         1 G8E       0.017100
     39 H8         -18.6250    -1.8110    -9.7560 h1         1 G8E       0.059950
     40 H9         -19.1950    -0.5710    -8.6110 h1         1 G8E       0.059950
     41 H10        -15.3080    -0.3360   -11.4570 h1         1 G8E       0.064200
     42 H11        -16.8960     0.1010    -8.1070 h1         1 G8E       0.064200
     43 H12        -14.7460    -0.6780    -6.3390 ha         1 G8E       0.135500
     44 H13        -13.9540     1.3630    -5.2080 ha         1 G8E       0.122500
     45 H14        -12.0560     2.6290    -8.8440 ha         1 G8E       0.122500
     46 H15        -12.8660     0.6180    -9.9730 ha         1 G8E       0.135500
     47 H16        -12.9470     2.6010    -2.9900 hn         1 G8E       0.184000
     48 H17        -10.9770     7.5390    -4.9070 hn         1 G8E       0.525500
     49 H18        -11.2520     6.7840    -3.3400 hn         1 G8E       0.525500
     50 H21        -15.8240     0.9150   -10.3010 h1         1 G8E       0.064200
     51 H22        -17.0450    -1.6590    -7.8900 h1         1 G8E       0.064200
@<TRIPOS>BOND
     1     1    13 1   
     2     1    27 1   
     3     1    32 1   
     4     1    33 1   
     5     2     3 ar  
     6     2    18 1   
     7     2    23 ar  
     8     3    22 ar  
     9     3    34 1   
    10     4     5 ar  
    11     4    22 ar  
    12     4    26 1   
    13     5     6 1   
    14     5    23 ar  
    15     6    24 1   
    16     6    30 2   
    17     7     8 ar  
    18     7    11 ar  
    19     7    24 1   
    20     8     9 ar  
    21     8    35 1   
    22     9    10 ar  
    23     9    36 1   
    24    10    25 ar  
    25    10    37 1   
    26    11    25 ar  
    27    11    38 1   
    28    12    14 1   
    29    12    27 1   
    30    12    39 1   
    31    12    40 1   
    32    13    21 1   
    33    13    41 1   
    34    13    50 1   
    35    14    21 1   
    36    14    42 1   
    37    14    51 1   
    38    15    16 ar  
    39    15    20 ar  
    40    15    31 1   
    41    16    17 ar  
    42    16    43 1   
    43    17    18 ar  
    44    17    44 1   
    45    18    19 ar  
    46    19    20 ar  
    47    19    45 1   
    48    20    46 1   
    49    21    31 1   
    50    24    47 1   
    51    26    48 1   
    52    26    49 1   
    53    28    31 2   
    54    29    31 2   
@<TRIPOS>SUBSTRUCTURE
     1 G8E         1 TEMP              0 ****  ****    0 ROOT
