@<TRIPOS>MOLECULE
G8F
   21    21     1     0     0
SMALL
abcg2


@<TRIPOS>ATOM
      1 C1          75.5810     1.4890    16.8230 ca         1 G8F      -0.306500
      2 C2          74.4040     2.1960    16.6280 ca         1 G8F      -0.038000
      3 C3          73.3810     2.0630    17.5600 ca         1 G8F       0.084100
      4 C4          73.5400     1.2250    18.6580 ca         1 G8F      -0.074000
      5 C5          74.7290     0.5310    18.8350 ca         1 G8F      -0.118000
      6 C6          75.7610     0.6550    17.9190 ca         1 G8F      -0.028000
      7 C7          71.2660     2.1490    16.5700 c3         1 G8F       0.148900
      8 N1          76.6870     0.4060    14.5450 n8         1 G8F      -0.996100
      9 O1          78.1420     1.3830    16.3040 o          1 G8F      -0.526000
     10 O2          76.6820     2.8650    14.8830 o          1 G8F      -0.526000
     11 O3          72.2320     2.7720    17.4090 os         1 G8F      -0.358100
     12 S1          76.8830     1.6300    15.6230 sy         1 G8F       1.139600
     13 H1          74.2780     2.8590    15.7820 ha         1 G8F       0.147000
     14 H2          72.7390     1.1300    19.3800 ha         1 G8F       0.129000
     15 H3          74.8520    -0.1110    19.6970 ha         1 G8F       0.122000
     16 H4          76.6880     0.1170    18.0680 ha         1 G8F       0.137000
     17 H5          70.4090     2.8170    16.5150 h1         1 G8F       0.037367
     18 H6          71.6540     1.9880    15.5610 h1         1 G8F       0.037367
     19 H7          70.9420     1.1880    16.9790 h1         1 G8F       0.037367
     20 H8          76.7960    -0.5180    14.9500 hn         1 G8F       0.475000
     21 H9          75.8300     0.4690    14.0070 hn         1 G8F       0.475000
@<TRIPOS>BOND
     1     1     2 ar  
     2     1     6 ar  
     3     1    12 1   
     4     2     3 ar  
     5     2    13 1   
     6     3     4 ar  
     7     3    11 1   
     8     4     5 ar  
     9     4    14 1   
    10     5     6 ar  
    11     5    15 1   
    12     6    16 1   
    13     7    11 1   
    14     7    17 1   
    15     7    18 1   
    16     7    19 1   
    17     8    12 1   
    18     8    20 1   
    19     8    21 1   
    20     9    12 2   
    21    10    12 2   
@<TRIPOS>SUBSTRUCTURE
     1 G8F         1 TEMP              0 ****  ****    0 ROOT
