@<TRIPOS>MOLECULE
G8F
   21    21     1     0     0
SMALL
No Charge or Current Charge


@<TRIPOS>ATOM
      1 C1          75.5250     1.3580    16.8200 ca         1 G8F      -0.306500
      2 C2          74.1760     1.7410    16.6330 ca         1 G8F      -0.038000
      3 C3          73.2460     1.6010    17.6900 ca         1 G8F       0.084100
      4 C4          73.6710     1.0780    18.9230 ca         1 G8F      -0.074000
      5 C5          75.0110     0.6960    19.1100 ca         1 G8F      -0.118000
      6 C6          75.9380     0.8340    18.0640 ca         1 G8F      -0.028000
      7 C7          71.3740     2.5080    16.3530 c3         1 G8F       0.148900
      8 N1          76.6510     0.0460    14.8030 n8         1 G8F      -0.996100
      9 O1          78.0710     1.6560    16.0150 o          1 G8F      -0.526000
     10 O2          76.1770     2.4150    14.4510 o          1 G8F      -0.526000
     11 O3          71.9160     1.9590    17.5680 os         1 G8F      -0.358100
     12 S1          76.7130     1.5320    15.4840 sy         1 G8F       1.139600
     13 H1          73.8640     2.1450    15.6730 ha         1 G8F       0.147000
     14 H2          72.9590     0.9690    19.7360 ha         1 G8F       0.129000
     15 H3          75.3310     0.2920    20.0680 ha         1 G8F       0.122000
     16 H4          76.9730     0.5330    18.2230 ha         1 G8F       0.137000
     17 H5          70.3040     2.7210    16.4770 h1         1 G8F       0.037367
     18 H6          71.8780     3.4470    16.0890 h1         1 G8F       0.037367
     19 H7          71.4850     1.8010    15.5210 h1         1 G8F       0.037367
     20 H8          75.7690    -0.3140    15.1600 hn         1 G8F       0.475000
     21 H9          76.4440     0.2850    13.8360 hn         1 G8F       0.475000
@<TRIPOS>BOND
     1     1     2 ar  
     2     1     6 ar  
     3     1    12 1   
     4     2     3 ar  
     5     2    13 1   
     6     3     4 ar  
     7     3    11 1   
     8     4     5 ar  
     9     4    14 1   
    10     5     6 ar  
    11     5    15 1   
    12     6    16 1   
    13     7    11 1   
    14     7    17 1   
    15     7    18 1   
    16     7    19 1   
    17     8    12 1   
    18     8    20 1   
    19     8    21 1   
    20     9    12 2   
    21    10    12 2   
@<TRIPOS>SUBSTRUCTURE
     1 G8F         1 TEMP              0 ****  ****    0 ROOT
