@<TRIPOS>MOLECULE
G8G
   44    44     1     0     0
SMALL
No Charge or Current Charge


@<TRIPOS>ATOM
      1 S01         -0.8160     1.8240    -1.3490 sh         1 G8G      -0.337400
      2 C02         -1.1390     0.6560    -0.0280 c2         1 G8G       0.090400
      3 C03         -0.1070    -0.4600    -0.0310 c3         1 G8G      -0.062200
      4 C04          1.1260    -0.1020     0.8270 c3         1 G8G       0.248600
      5 O05          1.9400    -1.2650     1.0170 os         1 G8G      -0.569400
      6 P06          3.1170    -1.6510    -0.0200 p5         1 G8G       1.455800
      7 O07          4.1630    -0.5790     0.4940 os         1 G8G      -0.706800
      8 P08          5.3840    -0.2120    -0.4350 p5         1 G8G       1.347900
      9 O09          4.9840     0.8200    -1.4310 o          1 G8G      -0.922833
     10 O10          6.4330     0.3770     0.4430 o          1 G8G      -0.922833
     11 O11          5.9730    -1.4010    -1.1120 o          1 G8G      -0.922833
     12 O12          2.6540    -1.4840    -1.4320 o          1 G8G      -0.884000
     13 O13          3.5550    -3.0530     0.2670 o          1 G8G      -0.884000
     14 C14         -2.1840     0.7860     0.8200 c2         1 G8G      -0.056600
     15 C15         -2.4460    -0.1750     1.9730 c3         1 G8G      -0.035900
     16 N16         -3.0830     1.8740     0.7050 n          1 G8G      -0.356000
     17 C17         -2.9010     3.0380     1.4780 c          1 G8G       0.594900
     18 O18         -1.9900     3.1750     2.2870 o          1 G8G      -0.568100
     19 C19         -4.2150     1.8550    -0.2430 c3         1 G8G       0.177300
     20 C20         -4.6790     0.4570    -0.6290 ca         1 G8G      -0.294300
     21 C21         -5.6360    -0.2670     0.1000 ca         1 G8G       0.390900
     22 N22         -6.2270     0.2160     1.2210 nv         1 G8G      -1.066900
     23 N23         -6.0260    -1.4980    -0.2540 nb         1 G8G      -0.288000
     24 C24         -5.4490    -2.0210    -1.3550 ca         1 G8G       0.151300
     25 C25         -5.8900    -3.4150    -1.7660 c3         1 G8G      -0.124400
     26 N26         -4.5240    -1.4170    -2.1310 nb         1 G8G      -0.211000
     27 C27         -4.1420    -0.1780    -1.7630 ca         1 G8G       0.153900
     28 H1          -1.8620     2.6360    -1.0760 hs         1 G8G       0.164800
     29 H2          -0.5470    -1.3890     0.3490 hc         1 G8G       0.060200
     30 H3           0.2010    -0.6810    -1.0580 hc         1 G8G       0.060200
     31 H4           1.6900     0.7060     0.3430 h1         1 G8G       0.007700
     32 H5           0.7860     0.2680     1.8030 h1         1 G8G       0.007700
     33 H9          -3.2260    -0.8980     1.7090 hc         1 G8G       0.048367
     34 H10         -1.5550    -0.7390     2.2700 hc         1 G8G       0.048367
     35 H11         -2.7850     0.3640     2.8650 hc         1 G8G       0.048367
     36 H12         -3.6620     3.8150     1.2770 h5         1 G8G      -0.039800
     37 H13         -5.0560     2.4140     0.1860 h1         1 G8G       0.037700
     38 H14         -3.9080     2.3920    -1.1510 h1         1 G8G       0.037700
     39 H15         -5.7750     0.9840     1.7070 hn         1 G8G       0.476500
     40 H16         -6.7580    -0.4320     1.7960 hn         1 G8G       0.476500
     41 H17         -6.8030    -3.3710    -2.3720 hc         1 G8G       0.046367
     42 H18         -5.1200    -3.9240    -2.3580 hc         1 G8G       0.046367
     43 H19         -6.0990    -4.0420    -0.8910 hc         1 G8G       0.046367
     44 H20         -3.3930     0.3070    -2.3870 h4         1 G8G       0.029100
@<TRIPOS>BOND
     1     1     2 1   
     2     1    28 1   
     3     2     3 1   
     4     2    14 2   
     5     3     4 1   
     6     3    29 1   
     7     3    30 1   
     8     4     5 1   
     9     4    31 1   
    10     4    32 1   
    11     5     6 1   
    12     6     7 1   
    13     6    12 1   
    14     6    13 1   
    15     7     8 1   
    16     8     9 1   
    17     8    10 1   
    18     8    11 1   
    19    14    15 1   
    20    14    16 1   
    21    15    33 1   
    22    15    34 1   
    23    15    35 1   
    24    16    17 1   
    25    16    19 1   
    26    17    18 2   
    27    17    36 1   
    28    19    20 1   
    29    19    37 1   
    30    19    38 1   
    31    20    21 ar  
    32    20    27 ar  
    33    21    22 1   
    34    21    23 ar  
    35    22    39 1   
    36    22    40 1   
    37    23    24 ar  
    38    24    25 1   
    39    24    26 ar  
    40    25    41 1   
    41    25    42 1   
    42    25    43 1   
    43    26    27 ar  
    44    27    44 1   
@<TRIPOS>SUBSTRUCTURE
     1 G8G         1 TEMP              0 ****  ****    0 ROOT
