@<TRIPOS>MOLECULE
G8G
   44    44     1     0     0
SMALL
bcc


@<TRIPOS>ATOM
      1 S01         -1.3410     2.3200    -1.8370 sh         1 G8G      -0.337400
      2 C02         -1.3240     1.0290    -0.6320 c2         1 G8G       0.090400
      3 C03         -0.1920     0.0650    -0.8470 c3         1 G8G      -0.062200
      4 C04          1.1050     0.5730    -0.2250 c3         1 G8G       0.225400
      5 O05          2.0920    -0.4160    -0.3750 os         1 G8G      -0.546200
      6 P06          3.6830     0.0850    -0.3320 p5         1 G8G       1.455800
      7 O07          4.2770    -1.4030    -0.2790 os         1 G8G      -0.706800
      8 P08          5.8720    -1.7900     0.2740 p5         1 G8G       1.347900
      9 O09          5.6990    -2.0330     1.7640 o          1 G8G      -0.922833
     10 O10          6.1650    -3.0410    -0.5420 o          1 G8G      -0.922833
     11 O11          6.7020    -0.5690    -0.0930 o          1 G8G      -0.922833
     12 O12          3.8840     0.8610     0.9380 o          1 G8G      -0.884000
     13 O13          3.9820     0.7590    -1.6430 o          1 G8G      -0.884000
     14 C14         -2.1990     0.9190     0.3730 c2         1 G8G      -0.056600
     15 C15         -2.1310    -0.1540     1.4230 c3         1 G8G      -0.035900
     16 N16         -3.3210     1.7950     0.4490 n          1 G8G      -0.423000
     17 C17         -3.4140     2.6970     1.4470 c          1 G8G       0.661900
     18 O18         -2.5540     2.9070     2.2780 o          1 G8G      -0.568100
     19 C19         -4.4180     1.5900    -0.4950 c3         1 G8G       0.177300
     20 C20         -4.8850     0.1710    -0.5110 ca         1 G8G      -0.424900
     21 C21         -5.5930    -0.4300     0.5530 ca         1 G8G       0.719200
     22 N22         -5.9230     0.2470     1.6660 nv         1 G8G      -0.956500
     23 N23         -5.9280    -1.7210     0.5060 nb         1 G8G      -0.814000
     24 C24         -5.5820    -2.4220    -0.5650 ca         1 G8G       0.677300
     25 C25         -6.0050    -3.8560    -0.6040 c3         1 G8G      -0.124400
     26 N26         -4.9200    -1.9520    -1.6160 nb         1 G8G      -0.737000
     27 C27         -4.5850    -0.6640    -1.5610 ca         1 G8G       0.482200
     28 H1          -2.0510     3.2340    -1.1670 hs         1 G8G       0.164800
     29 H2          -0.4470    -0.9070    -0.4230 hc         1 G8G       0.060200
     30 H3          -0.0390    -0.0970    -1.9180 hc         1 G8G       0.060200
     31 H4           1.3880     1.5150    -0.7090 h1         1 G8G       0.007700
     32 H5           0.9320     0.7980     0.8350 h1         1 G8G       0.007700
     33 H9          -2.6720    -1.0490     1.1040 hc         1 G8G       0.048367
     34 H10         -1.1080    -0.4480     1.6490 hc         1 G8G       0.048367
     35 H11         -2.5840     0.1820     2.3530 hc         1 G8G       0.048367
     36 H12         -4.3680     3.2480     1.4290 h5         1 G8G      -0.039800
     37 H13         -5.2210     2.2840    -0.2320 h1         1 G8G       0.037700
     38 H14         -4.0960     1.8660    -1.5020 h1         1 G8G       0.037700
     39 H15         -5.9240     1.2510     1.6810 hn         1 G8G       0.421300
     40 H16         -6.5400    -0.1990     2.3250 hn         1 G8G       0.421300
     41 H17         -6.9970    -3.9380    -1.0540 hc         1 G8G       0.046367
     42 H18         -5.3220    -4.4490    -1.2080 hc         1 G8G       0.046367
     43 H19         -6.0650    -4.2780     0.3970 hc         1 G8G       0.046367
     44 H20         -4.0320    -0.2690    -2.4090 h4         1 G8G       0.029100
@<TRIPOS>BOND
     1     1     2 1   
     2     1    28 1   
     3     2     3 1   
     4     2    14 2   
     5     3     4 1   
     6     3    29 1   
     7     3    30 1   
     8     4     5 1   
     9     4    31 1   
    10     4    32 1   
    11     5     6 1   
    12     6     7 1   
    13     6    12 1   
    14     6    13 1   
    15     7     8 1   
    16     8     9 1   
    17     8    10 1   
    18     8    11 1   
    19    14    15 1   
    20    14    16 1   
    21    15    33 1   
    22    15    34 1   
    23    15    35 1   
    24    16    17 1   
    25    16    19 1   
    26    17    18 2   
    27    17    36 1   
    28    19    20 1   
    29    19    37 1   
    30    19    38 1   
    31    20    21 ar  
    32    20    27 ar  
    33    21    22 1   
    34    21    23 ar  
    35    22    39 1   
    36    22    40 1   
    37    23    24 ar  
    38    24    25 1   
    39    24    26 ar  
    40    25    41 1   
    41    25    42 1   
    42    25    43 1   
    43    26    27 ar  
    44    27    44 1   
@<TRIPOS>SUBSTRUCTURE
     1 G8G         1 TEMP              0 ****  ****    0 ROOT
