@<TRIPOS>MOLECULE
G8H
   34    36     1     0     0
SMALL
bcc


@<TRIPOS>ATOM
      1 C4           6.1490     1.0770     0.5820 ca         1 G8H      -0.284300
      2 C14         -5.0920     0.0590     1.0550 ca         1 G8H      -0.116000
      3 C5           4.9350     1.6290     0.9450 ca         1 G8H       0.440200
      4 C6           1.2510    -0.2000    -0.1380 c          1 G8H       0.672100
      5 C11         -3.7800    -0.2370     0.6190 ca         1 G8H      -0.031000
      6 C7           0.2110    -1.1110    -0.7750 c3         1 G8H      -0.118100
      7 C8          -1.1790    -0.8010    -0.3140 ca         1 G8H      -0.068300
      8 C9          -1.5990    -1.2180     0.9720 ca         1 G8H      -0.109000
      9 C10         -2.8580    -0.9460     1.4250 ca         1 G8H      -0.113000
     10 C12         -3.3700     0.1830    -0.6720 ca         1 G8H      -0.035000
     11 C13         -2.0570    -0.1140    -1.1090 ca         1 G8H      -0.098000
     12 N1           3.7540     1.0960     0.6420 nb         1 G8H      -0.678000
     13 C3           6.1240    -0.1110    -0.1430 ca         1 G8H      -0.062000
     14 C1           3.7410    -0.0290    -0.0500 ca         1 G8H       0.555200
     15 C2           4.9100    -0.6770    -0.4680 ca         1 G8H      -0.303300
     16 O1           0.9570     0.7830     0.5030 o          1 G8H      -0.510100
     17 C15         -5.9590     0.7430     0.2460 ca         1 G8H      -0.124000
     18 C16         -5.5510     1.1620    -1.0380 ca         1 G8H      -0.127000
     19 C17         -4.2870     0.8890    -1.4860 ca         1 G8H      -0.114000
     20 H1           7.0780     1.5560     0.8530 ha         1 G8H       0.145000
     21 H3           4.9050     2.5530     1.5120 h4         1 G8H       0.023100
     22 H4           0.2900    -0.9990    -1.8600 hc         1 G8H       0.063700
     23 H5           0.4610    -2.1540    -0.5600 hc         1 G8H       0.063700
     24 H6          -0.9090    -1.7700     1.6000 ha         1 G8H       0.130000
     25 H7          -3.1650    -1.2760     2.4110 ha         1 G8H       0.132000
     26 H8          -1.7530     0.2140    -2.0970 ha         1 G8H       0.129000
     27 H10          7.0440    -0.5900    -0.4500 ha         1 G8H       0.136000
     28 H11          4.8600    -1.6000    -1.0330 ha         1 G8H       0.136000
     29 H12         -6.9610     0.9650     0.5870 ha         1 G8H       0.130000
     30 H13         -6.2450     1.7020    -1.6690 ha         1 G8H       0.130000
     31 H14         -3.9750     1.2120    -2.4720 ha         1 G8H       0.130000
     32 N2           2.5270    -0.6160    -0.3920 ns         1 G8H      -0.570400
     33 H2          -5.4020    -0.2670     2.0410 ha         1 G8H       0.131000
     34 H9           2.6100    -1.4640    -0.9320 hn         1 G8H       0.314500
@<TRIPOS>BOND
     1     1     3 ar  
     2     1    13 ar  
     3     1    20 1   
     4     2     5 ar  
     5     2    17 ar  
     6     2    33 1   
     7     3    12 ar  
     8     3    21 1   
     9     4     6 1   
    10     4    16 2   
    11     4    32 1   
    12     5     9 ar  
    13     5    10 ar  
    14     6     7 1   
    15     6    22 1   
    16     6    23 1   
    17     7     8 ar  
    18     7    11 ar  
    19     8     9 ar  
    20     8    24 1   
    21     9    25 1   
    22    10    11 ar  
    23    10    19 ar  
    24    11    26 1   
    25    12    14 ar  
    26    13    15 ar  
    27    13    27 1   
    28    14    15 ar  
    29    14    32 1   
    30    15    28 1   
    31    17    18 ar  
    32    17    29 1   
    33    18    19 ar  
    34    18    30 1   
    35    19    31 1   
    36    32    34 1   
@<TRIPOS>SUBSTRUCTURE
     1 G8H         1 TEMP              0 ****  ****    0 ROOT
