@<TRIPOS>MOLECULE
G8H
   34    36     1     0     0
SMALL
No Charge or Current Charge


@<TRIPOS>ATOM
      1 C4           5.5560     1.1770     1.1590 ca         1 G8H      -0.201000
      2 C14         -4.4930    -0.1020     1.4200 ca         1 G8H      -0.098000
      3 C5           4.3630     1.8550     0.8550 ca         1 G8H       0.374900
      4 C6           1.3010    -0.1400    -1.4230 c          1 G8H       0.605100
      5 C11         -3.3480    -0.3580     0.6420 ca         1 G8H      -0.031000
      6 C7           0.1880    -1.1370    -1.7660 c3         1 G8H      -0.118100
      7 C8          -1.0550    -0.8670    -0.9250 ca         1 G8H      -0.068300
      8 C9          -1.2020    -1.4730     0.3370 ca         1 G8H      -0.091000
      9 C10         -2.3430    -1.2210     1.1170 ca         1 G8H      -0.095000
     10 C12         -3.2050     0.2550    -0.6220 ca         1 G8H      -0.035000
     11 C13         -2.0600    -0.0010    -1.4000 ca         1 G8H      -0.080000
     12 N1           3.3070     1.2540     0.2630 nb         1 G8H      -0.678000
     13 C3           5.6700    -0.1860     0.8460 ca         1 G8H      -0.044000
     14 C1           3.4300    -0.0490    -0.0610 ca         1 G8H       0.489900
     15 C2           4.5730    -0.8090     0.2300 ca         1 G8H      -0.220000
     16 O1           1.2900     1.0080    -1.8500 o          1 G8H      -0.510100
     17 C15         -5.4920     0.7630     0.9400 ca         1 G8H      -0.106000
     18 C16         -5.3500     1.3730    -0.3180 ca         1 G8H      -0.109000
     19 C17         -4.2080     1.1200    -1.0990 ca         1 G8H      -0.096000
     20 H1           6.3750     1.7070     1.6370 ha         1 G8H       0.127000
     21 H3           4.2480     2.9110     1.0980 h4         1 G8H       0.023100
     22 H4          -0.0570    -1.0360    -2.8300 hc         1 G8H       0.063700
     23 H5           0.5340    -2.1600    -1.5720 hc         1 G8H       0.063700
     24 H6          -0.4320    -2.1410     0.7170 ha         1 G8H       0.112000
     25 H7          -2.4450    -1.6960     2.0900 ha         1 G8H       0.114000
     26 H8          -1.9490     0.4730    -2.3720 ha         1 G8H       0.111000
     27 H10          6.5760    -0.7430     1.0780 ha         1 G8H       0.118000
     28 H11          4.6080    -1.8650    -0.0220 ha         1 G8H       0.118000
     29 H12         -6.3760     0.9590     1.5420 ha         1 G8H       0.112000
     30 H13         -6.1240     2.0410    -0.6890 ha         1 G8H       0.112000
     31 H14         -4.1060     1.5960    -2.0710 ha         1 G8H       0.112000
     32 N2           2.2960    -0.6570    -0.6180 ns         1 G8H      -0.336900
     33 H2          -4.6100    -0.5700     2.3950 ha         1 G8H       0.113000
     34 H9           2.2020    -1.6370    -0.3920 hn         1 G8H       0.148000
@<TRIPOS>BOND
     1     1     3 ar  
     2     1    13 ar  
     3     1    20 1   
     4     2     5 ar  
     5     2    17 ar  
     6     2    33 1   
     7     3    12 ar  
     8     3    21 1   
     9     4     6 1   
    10     4    16 2   
    11     4    32 1   
    12     5     9 ar  
    13     5    10 ar  
    14     6     7 1   
    15     6    22 1   
    16     6    23 1   
    17     7     8 ar  
    18     7    11 ar  
    19     8     9 ar  
    20     8    24 1   
    21     9    25 1   
    22    10    11 ar  
    23    10    19 ar  
    24    11    26 1   
    25    12    14 ar  
    26    13    15 ar  
    27    13    27 1   
    28    14    15 ar  
    29    14    32 1   
    30    15    28 1   
    31    17    18 ar  
    32    17    29 1   
    33    18    19 ar  
    34    18    30 1   
    35    19    31 1   
    36    32    34 1   
@<TRIPOS>SUBSTRUCTURE
     1 G8H         1 TEMP              0 ****  ****    0 ROOT
