@<TRIPOS>MOLECULE
G8I
   20    19     1     0     0
SMALL
No Charge or Current Charge


@<TRIPOS>ATOM
      1 C01         26.1540   183.1000    -8.6620 c3         1 G8I      -0.063000
      2 C02         26.7690   183.0850   -10.0890 c3         1 G8I      -0.072433
      3 C03         25.1240   184.2850    -8.5370 c3         1 G8I       0.038300
      4 C04         24.0250   184.3170    -9.6810 c          1 G8I       0.729000
      5 C08         27.3140   183.3020    -7.6440 c3         1 G8I      -0.072433
      6 C09         25.4890   181.7190    -8.3940 c3         1 G8I      -0.072433
      7 O05         23.0440   183.5860    -9.5950 o          1 G8I      -0.723500
      8 O06         24.1270   185.1760   -10.5500 o          1 G8I      -0.723500
      9 O07         24.5590   184.3340    -7.1970 oh         1 G8I      -0.636000
     10 H1          27.5450   182.3150   -10.1740 hc         1 G8I       0.022478
     11 H2          26.0090   182.8710   -10.8510 hc         1 G8I       0.022478
     12 H3          27.2270   184.0520   -10.3280 hc         1 G8I       0.022478
     13 H4          25.7070   185.2060    -8.6770 h1         1 G8I       0.008700
     14 H5          26.9560   183.2510    -6.6090 hc         1 G8I       0.022478
     15 H6          28.0800   182.5250    -7.7650 hc         1 G8I       0.022478
     16 H7          27.7990   184.2750    -7.7900 hc         1 G8I       0.022478
     17 H8          25.0440   181.6760    -7.3930 hc         1 G8I       0.022478
     18 H9          24.7020   181.5060    -9.1270 hc         1 G8I       0.022478
     19 H10         26.2290   180.9120    -8.4630 hc         1 G8I       0.022478
     20 H12         25.3040   184.2160    -6.5730 ho         1 G8I       0.388000
@<TRIPOS>BOND
     1     1     2 1   
     2     1     3 1   
     3     1     5 1   
     4     1     6 1   
     5     2    10 1   
     6     2    11 1   
     7     2    12 1   
     8     3     4 1   
     9     3     9 1   
    10     3    13 1   
    11     4     7 1   
    12     4     8 1   
    13     5    14 1   
    14     5    15 1   
    15     5    16 1   
    16     6    17 1   
    17     6    18 1   
    18     6    19 1   
    19     9    20 1   
@<TRIPOS>SUBSTRUCTURE
     1 G8I         1 TEMP              0 ****  ****    0 ROOT
