@<TRIPOS>MOLECULE
G8I
   20    19     1     0     0
SMALL
abcg2


@<TRIPOS>ATOM
      1 C01         26.1550   183.0960    -8.6840 c3         1 G8I      -0.063000
      2 C02         26.7900   183.1250   -10.0750 c3         1 G8I      -0.072433
      3 C03         25.1590   184.2760    -8.5300 c3         1 G8I       0.038300
      4 C04         24.0100   184.2480    -9.5650 c          1 G8I       0.729000
      5 C08         27.2750   183.2580    -7.6490 c3         1 G8I      -0.072433
      6 C09         25.4740   181.7450    -8.4670 c3         1 G8I      -0.072433
      7 O05         22.9840   183.6080    -9.2670 o          1 G8I      -0.723500
      8 O06         24.2200   184.8740   -10.6250 o          1 G8I      -0.723500
      9 O07         24.5870   184.3200    -7.2360 oh         1 G8I      -0.636000
     10 H1          27.5690   182.3630   -10.1500 hc         1 G8I       0.022478
     11 H2          26.0630   182.9300   -10.8630 hc         1 G8I       0.022478
     12 H3          27.2550   184.0910   -10.2850 hc         1 G8I       0.022478
     13 H4          25.7420   185.1930    -8.7110 h1         1 G8I       0.008700
     14 H5          26.9160   183.1540    -6.6220 hc         1 G8I       0.022478
     15 H6          28.0380   182.4900    -7.7920 hc         1 G8I       0.022478
     16 H7          27.7660   184.2300    -7.7390 hc         1 G8I       0.022478
     17 H8          24.9760   181.6980    -7.4980 hc         1 G8I       0.022478
     18 H9          24.7290   181.5390    -9.2350 hc         1 G8I       0.022478
     19 H10         26.2130   180.9410    -8.4980 hc         1 G8I       0.022478
     20 H12         25.2840   184.5300    -6.6090 ho         1 G8I       0.388000
@<TRIPOS>BOND
     1     1     2 1   
     2     1     3 1   
     3     1     5 1   
     4     1     6 1   
     5     2    10 1   
     6     2    11 1   
     7     2    12 1   
     8     3     4 1   
     9     3     9 1   
    10     3    13 1   
    11     4     7 1   
    12     4     8 1   
    13     5    14 1   
    14     5    15 1   
    15     5    16 1   
    16     6    17 1   
    17     6    18 1   
    18     6    19 1   
    19     9    20 1   
@<TRIPOS>SUBSTRUCTURE
     1 G8I         1 TEMP              0 ****  ****    0 ROOT
