@<TRIPOS>MOLECULE
G8J
   51    53     1     0     0
SMALL
bcc


@<TRIPOS>ATOM
      1 C4          -4.0800     0.0690     0.5440 ca         1 G8J       0.548600
      2 C5          -2.8430     0.1200    -0.0940 ca         1 G8J      -0.344600
      3 C6          -2.6240     1.2360    -0.9430 ca         1 G8J       0.758200
      4 N1          -3.5470     2.1730    -1.1070 nb         1 G8J      -0.863000
      5 N3          -5.0040     1.0050     0.3730 nb         1 G8J      -0.816000
      6 CAJ         -3.9590    -0.6740     2.9220 c3         1 G8J      -0.084100
      7 CAI         -4.4040    -1.0350     1.5050 c3         1 G8J      -0.135700
      8 C2          -4.6940     2.0180    -0.4440 ca         1 G8J       0.955900
      9 NAG         -5.6380     2.9540    -0.6370 nv         1 G8J      -0.956500
     10 NAH         -1.4510     1.3940    -1.5840 nv         1 G8J      -0.954500
     11 CAK         -1.8260    -0.8480     0.0870 cg         1 G8J      -0.090000
     12 CAL         -0.9140    -1.6300     0.2090 c1         1 G8J      -0.156100
     13 CAM          0.2060    -2.5550     0.3530 c3         1 G8J       0.087700
     14 CAZ          0.2810    -3.0950     1.7900 c3         1 G8J      -0.079100
     15 CAN          1.5140    -1.8970    -0.0470 ca         1 G8J      -0.112300
     16 CAO          1.7110    -0.5370     0.1050 ca         1 G8J      -0.073000
     17 CAS          2.5740    -2.6790    -0.5360 ca         1 G8J       0.154100
     18 OBA          2.3420    -3.9960    -0.6480 os         1 G8J      -0.319900
     19 CBB          3.3690    -4.8370    -1.1370 c3         1 G8J       0.125700
     20 CAR          3.7820    -2.0730    -0.8740 ca         1 G8J      -0.221000
     21 CAQ          3.9460    -0.7060    -0.7150 ca         1 G8J      -0.072000
     22 CAP          2.9170     0.0880    -0.2210 cp         1 G8J      -0.086000
     23 CAT          3.0820     1.5410    -0.0530 cp         1 G8J       0.018000
     24 CAU          2.0130     2.4240    -0.2080 ca         1 G8J      -0.244800
     25 CAV          2.2220     3.7830    -0.0380 ca         1 G8J       0.399700
     26 NAW          3.4000     4.3160     0.2670 nb         1 G8J      -0.666000
     27 CAX          4.4200     3.4780     0.4130 ca         1 G8J       0.399700
     28 CAY          4.3160     2.1050     0.2680 ca         1 G8J      -0.244800
     29 H1          -4.2160    -1.4730     3.6180 hc         1 G8J       0.038367
     30 H2          -2.8800    -0.5230     2.9710 hc         1 G8J       0.038367
     31 H3          -4.4460     0.2390     3.2650 hc         1 G8J       0.038367
     32 H4          -5.4810    -1.2060     1.4900 hc         1 G8J       0.061200
     33 H5          -3.9180    -1.9610     1.1940 hc         1 G8J       0.061200
     34 H6          -5.4070     3.8000    -1.1260 hn         1 G8J       0.444300
     35 H7          -6.4590     2.9540    -0.0580 hn         1 G8J       0.444300
     36 H8          -0.8320     0.6070    -1.6810 hn         1 G8J       0.435300
     37 H9          -1.3950     2.0950    -2.3040 hn         1 G8J       0.435300
     38 H10          0.0230    -3.4020    -0.3140 hc         1 G8J       0.079700
     39 H11          0.4570    -2.2840     2.4970 hc         1 G8J       0.041367
     40 H12         -0.6490    -3.5930     2.0630 hc         1 G8J       0.041367
     41 H13          1.0920    -3.8170     1.8850 hc         1 G8J       0.041367
     42 H14          0.9000     0.0550     0.5130 ha         1 G8J       0.147000
     43 H15          2.9650    -5.8460    -1.1400 h1         1 G8J       0.042700
     44 H16          3.6620    -4.5710    -2.1560 h1         1 G8J       0.042700
     45 H17          4.2540    -4.8130    -0.4960 h1         1 G8J       0.042700
     46 H18          4.6060    -2.6490    -1.2710 ha         1 G8J       0.137000
     47 H19          4.8890    -0.2610    -1.0080 ha         1 G8J       0.133000
     48 H20          1.0250     2.0730    -0.4800 ha         1 G8J       0.142500
     49 H21          1.3950     4.4730    -0.1630 h4         1 G8J       0.018100
     50 H22          5.3770     3.9200     0.6690 h4         1 G8J       0.018100
     51 H23          5.1900     1.4870     0.4270 ha         1 G8J       0.142500
@<TRIPOS>BOND
     1     1     2 ar  
     2     1     5 ar  
     3     1     7 1   
     4     2     3 ar  
     5     2    11 1   
     6     3     4 ar  
     7     3    10 1   
     8     4     8 ar  
     9     5     8 ar  
    10     6     7 1   
    11     6    29 1   
    12     6    30 1   
    13     6    31 1   
    14     7    32 1   
    15     7    33 1   
    16     8     9 1   
    17     9    34 1   
    18     9    35 1   
    19    10    36 1   
    20    10    37 1   
    21    11    12 3   
    22    12    13 1   
    23    13    14 1   
    24    13    15 1   
    25    13    38 1   
    26    14    39 1   
    27    14    40 1   
    28    14    41 1   
    29    15    16 ar  
    30    15    17 ar  
    31    16    22 ar  
    32    16    42 1   
    33    17    18 1   
    34    17    20 ar  
    35    18    19 1   
    36    19    43 1   
    37    19    44 1   
    38    19    45 1   
    39    20    21 ar  
    40    20    46 1   
    41    21    22 ar  
    42    21    47 1   
    43    22    23 1   
    44    23    24 ar  
    45    23    28 ar  
    46    24    25 ar  
    47    24    48 1   
    48    25    26 ar  
    49    25    49 1   
    50    26    27 ar  
    51    27    28 ar  
    52    27    50 1   
    53    28    51 1   
@<TRIPOS>SUBSTRUCTURE
     1 G8J         1 TEMP              0 ****  ****    0 ROOT
