@<TRIPOS>MOLECULE
G8J
   51    53     1     0     0
SMALL
No Charge or Current Charge


@<TRIPOS>ATOM
      1 C4          -3.6710     0.4650     0.4010 ca         1 G8J       0.220300
      2 C5          -3.1840    -0.5360    -0.4740 ca         1 G8J      -0.214000
      3 C6          -3.9360    -0.7610    -1.6460 ca         1 G8J       0.429900
      4 N1          -5.0500    -0.0820    -1.9310 nb         1 G8J      -0.337000
      5 N3          -4.7940     1.1540     0.1110 nb         1 G8J      -0.290000
      6 CAJ         -1.7950     1.8130     1.4940 c3         1 G8J      -0.084100
      7 CAI         -2.9780     0.8470     1.7090 c3         1 G8J      -0.135700
      8 C2          -5.4100     0.8350    -1.0320 ca         1 G8J       0.429900
      9 NAG         -6.5340     1.5280    -1.3170 nv         1 G8J      -1.066900
     10 NAH         -3.5930    -1.6890    -2.5790 nv         1 G8J      -1.064900
     11 CAK         -1.9860    -1.2830    -0.1810 cg         1 G8J      -0.090000
     12 CAL         -0.9770    -1.9030     0.0830 c1         1 G8J      -0.156100
     13 CAM          0.2420    -2.6390     0.4530 c3         1 G8J       0.087700
     14 CAZ          0.2240    -3.0330     1.9480 c3         1 G8J      -0.079100
     15 CAN          1.4860    -1.8170     0.0720 ca         1 G8J      -0.112300
     16 CAO          1.8010    -0.6450     0.7980 ca         1 G8J      -0.055000
     17 CAS          2.3250    -2.2070    -1.0010 ca         1 G8J       0.154100
     18 OBA          2.0120    -3.3470    -1.7200 os         1 G8J      -0.343100
     19 CBB          2.8070    -3.8110    -2.8260 c3         1 G8J       0.148900
     20 CAR          3.4620    -1.4310    -1.3150 ca         1 G8J      -0.203000
     21 CAQ          3.7640    -0.2780    -0.5750 ca         1 G8J      -0.054000
     22 CAP          2.9410     0.1400     0.4960 cp         1 G8J      -0.086000
     23 CAT          3.2660     1.3710     1.2840 cp         1 G8J       0.018000
     24 CAU          2.2590     2.1970     1.8360 ca         1 G8J      -0.161500
     25 CAV          2.6080     3.3430     2.5690 ca         1 G8J       0.334400
     26 NAW          3.8890     3.7160     2.7870 nb         1 G8J      -0.666000
     27 CAX          4.8650     2.9370     2.2680 ca         1 G8J       0.334400
     28 CAY          4.6010     1.7760     1.5220 ca         1 G8J      -0.161500
     29 H1          -1.3210     2.0580     2.4520 hc         1 G8J       0.038367
     30 H2          -1.0390     1.3620     0.8400 hc         1 G8J       0.038367
     31 H3          -2.1380     2.7460     1.0310 hc         1 G8J       0.038367
     32 H4          -3.6930     1.3180     2.3950 hc         1 G8J       0.061200
     33 H5          -2.6190    -0.0510     2.2280 hc         1 G8J       0.061200
     34 H6          -6.8910     1.4860    -2.2680 hn         1 G8J       0.499500
     35 H7          -6.7170     2.3840    -0.7990 hn         1 G8J       0.499500
     36 H8          -2.8890    -2.3770    -2.3260 hn         1 G8J       0.490500
     37 H9          -4.2920    -1.9710    -3.2610 hn         1 G8J       0.490500
     38 H10          0.2180    -3.5810    -0.1070 hc         1 G8J       0.079700
     39 H11          0.1260    -2.1570     2.5990 hc         1 G8J       0.041367
     40 H12         -0.6180    -3.7050     2.1590 hc         1 G8J       0.041367
     41 H13          1.1490    -3.5580     2.2140 hc         1 G8J       0.041367
     42 H14          1.1560    -0.3420     1.6180 ha         1 G8J       0.129000
     43 H15          2.3730    -4.7270    -3.2460 h1         1 G8J       0.042700
     44 H16          2.8450    -3.0580    -3.6220 h1         1 G8J       0.042700
     45 H17          3.8310    -4.0380    -2.5030 h1         1 G8J       0.042700
     46 H18          4.1240    -1.7040    -2.1310 ha         1 G8J       0.119000
     47 H19          4.6400     0.3050    -0.8470 ha         1 G8J       0.115000
     48 H20          1.2100     1.9670     1.6900 ha         1 G8J       0.124500
     49 H21          1.8370     3.9860     2.9920 h4         1 G8J       0.018100
     50 H22          5.8900     3.2520     2.4580 h4         1 G8J       0.018100
     51 H23          5.4350     1.1920     1.1470 ha         1 G8J       0.124500
@<TRIPOS>BOND
     1     1     2 ar  
     2     1     5 ar  
     3     1     7 1   
     4     2     3 ar  
     5     2    11 1   
     6     3     4 ar  
     7     3    10 1   
     8     4     8 ar  
     9     5     8 ar  
    10     6     7 1   
    11     6    29 1   
    12     6    30 1   
    13     6    31 1   
    14     7    32 1   
    15     7    33 1   
    16     8     9 1   
    17     9    34 1   
    18     9    35 1   
    19    10    36 1   
    20    10    37 1   
    21    11    12 3   
    22    12    13 1   
    23    13    14 1   
    24    13    15 1   
    25    13    38 1   
    26    14    39 1   
    27    14    40 1   
    28    14    41 1   
    29    15    16 ar  
    30    15    17 ar  
    31    16    22 ar  
    32    16    42 1   
    33    17    18 1   
    34    17    20 ar  
    35    18    19 1   
    36    19    43 1   
    37    19    44 1   
    38    19    45 1   
    39    20    21 ar  
    40    20    46 1   
    41    21    22 ar  
    42    21    47 1   
    43    22    23 1   
    44    23    24 ar  
    45    23    28 ar  
    46    24    25 ar  
    47    24    48 1   
    48    25    26 ar  
    49    25    49 1   
    50    26    27 ar  
    51    27    28 ar  
    52    27    50 1   
    53    28    51 1   
@<TRIPOS>SUBSTRUCTURE
     1 G8J         1 TEMP              0 ****  ****    0 ROOT
