@<TRIPOS>MOLECULE
G8K
   47    50     1     0     0
SMALL
abcg2


@<TRIPOS>ATOM
      1 C1          -6.2760     1.0210    -1.7700 c3         1 G8K       0.149900
      2 C10          2.4990    -0.1770    -0.4750 cc         1 G8K       0.463000
      3 C11          3.9560    -0.2100    -0.4520 ca         1 G8K      -0.075500
      4 C12          4.6950    -0.1420    -1.6260 ca         1 G8K      -0.139000
      5 C13          6.0940    -0.1660    -1.6180 ca         1 G8K      -0.098000
      6 C14          6.8020    -0.2590    -0.4360 ca         1 G8K      -0.114000
      7 C15          6.0680    -0.3320     0.7440 ca         1 G8K      -0.055200
      8 C16          4.6530    -0.3160     0.7690 ca         1 G8K      -0.063800
      9 C17          4.2680    -0.3990     2.1420 cc         1 G8K      -0.212200
     10 C18          5.4230    -0.4620     2.8690 cd         1 G8K      -0.169100
     11 C19         -3.1790    -1.0010     0.6600 ca         1 G8K      -0.192500
     12 C2          -4.6050     0.7690    -0.1570 ca         1 G8K       0.041100
     13 C20         -4.4470    -0.5320     0.3350 ca         1 G8K       0.146600
     14 C21         -5.4920    -2.5640     0.9580 c3         1 G8K       0.144900
     15 C3          -3.4890     1.5900    -0.3390 ca         1 G8K       0.146600
     16 C4          -2.6520     3.6900    -1.0420 c3         1 G8K       0.144900
     17 C5          -2.2180     1.1120    -0.0290 ca         1 G8K      -0.192500
     18 C6          -2.0720    -0.1830     0.4590 ca         1 G8K      -0.091600
     19 C7          -0.7340    -0.7100     0.8490 c          1 G8K       0.512200
     20 C8           0.4280    -0.3290     0.0450 cd         1 G8K       0.161500
     21 C9           0.4650     0.1670    -1.2380 cc         1 G8K      -0.175000
     22 N1           1.7740     0.2540    -1.5480 na         1 G8K      -0.289500
     23 N2           6.4990    -0.4220     2.0340 na         1 G8K      -0.223700
     24 N3           1.7010    -0.5410     0.4950 nd         1 G8K      -0.613000
     25 O1          -5.8450     1.2410    -0.4320 os         1 G8K      -0.328100
     26 O2          -3.7440     2.8220    -0.8080 os         1 G8K      -0.323600
     27 O3          -0.6180    -1.4620     1.7980 o          1 G8K      -0.494100
     28 O4          -5.5790    -1.2400     0.4660 os         1 G8K      -0.323600
     29 H1          -5.6350     1.5330    -2.4910 h1         1 G8K       0.033367
     30 H2          -6.3060    -0.0430    -2.0160 h1         1 G8K       0.033367
     31 H3          -7.2840     1.4260    -1.8510 h1         1 G8K       0.033367
     32 H4           4.1960    -0.0840    -2.5850 ha         1 G8K       0.097000
     33 H5           6.6270    -0.1130    -2.5580 ha         1 G8K       0.112000
     34 H6           7.8850    -0.2750    -0.4300 ha         1 G8K       0.115000
     35 H7           3.2680    -0.4220     2.5360 ha         1 G8K       0.233000
     36 H8           5.5610    -0.5340     3.9360 h4         1 G8K       0.214000
     37 H9          -3.0350    -2.0000     1.0490 ha         1 G8K       0.132000
     38 H10         -5.0870    -2.5970     1.9720 h1         1 G8K       0.042867
     39 H11         -6.5060    -2.9540     0.9720 h1         1 G8K       0.042867
     40 H12         -4.8790    -3.1990     0.3130 h1         1 G8K       0.042867
     41 H13         -2.1170     3.9290    -0.1190 h1         1 G8K       0.042867
     42 H14         -1.9460     3.2720    -1.7640 h1         1 G8K       0.042867
     43 H15         -3.0690     4.6060    -1.4510 h1         1 G8K       0.042867
     44 H16         -1.3510     1.7490    -0.1230 ha         1 G8K       0.132000
     45 H17         -0.3090     0.4330    -1.9380 h4         1 G8K       0.165000
     46 H18          2.1350     0.6130    -2.4190 hn         1 G8K       0.356000
     47 H19          7.4610    -0.4550     2.3270 hn         1 G8K       0.349000
@<TRIPOS>BOND
     1     1    25 1   
     2     1    29 1   
     3     1    30 1   
     4     1    31 1   
     5     2     3 1   
     6     2    22 1   
     7     2    24 2   
     8     3     4 ar  
     9     3     8 ar  
    10     4     5 ar  
    11     4    32 1   
    12     5     6 ar  
    13     5    33 1   
    14     6     7 ar  
    15     6    34 1   
    16     7     8 ar  
    17     7    23 1   
    18     8     9 1   
    19     9    10 2   
    20     9    35 1   
    21    10    23 1   
    22    10    36 1   
    23    11    13 ar  
    24    11    18 ar  
    25    11    37 1   
    26    12    13 ar  
    27    12    15 ar  
    28    12    25 1   
    29    13    28 1   
    30    14    28 1   
    31    14    38 1   
    32    14    39 1   
    33    14    40 1   
    34    15    17 ar  
    35    15    26 1   
    36    16    26 1   
    37    16    41 1   
    38    16    42 1   
    39    16    43 1   
    40    17    18 ar  
    41    17    44 1   
    42    18    19 1   
    43    19    20 1   
    44    19    27 2   
    45    20    21 2   
    46    20    24 1   
    47    21    22 1   
    48    21    45 1   
    49    22    46 1   
    50    23    47 1   
@<TRIPOS>SUBSTRUCTURE
     1 G8K         1 TEMP              0 ****  ****    0 ROOT
