@<TRIPOS>MOLECULE
G8K
   47    50     1     0     0
SMALL
No Charge or Current Charge


@<TRIPOS>ATOM
      1 C1          -6.9820     0.4790    -1.3760 c3         1 G8K       0.149900
      2 C10          2.5920    -0.0030    -0.2740 cc         1 G8K       0.463000
      3 C11          4.0690    -0.0790    -0.3040 ca         1 G8K      -0.075500
      4 C12          4.7850     0.2600    -1.4840 ca         1 G8K      -0.139000
      5 C13          6.1960     0.1940    -1.5330 ca         1 G8K      -0.098000
      6 C14          6.9300    -0.2120    -0.4040 ca         1 G8K      -0.114000
      7 C15          6.2220    -0.5440     0.7560 ca         1 G8K      -0.055200
      8 C16          4.8520    -0.4820     0.8070 ca         1 G8K      -0.063800
      9 C17          4.4900    -0.8900     2.1390 cc         1 G8K      -0.212200
     10 C18          5.6600    -1.1790     2.8270 cd         1 G8K      -0.169100
     11 C19         -3.1580    -0.8000     0.5030 ca         1 G8K      -0.192500
     12 C2          -4.5970     0.8200    -0.6500 ca         1 G8K       0.041100
     13 C20         -4.4100    -0.4730    -0.0680 ca         1 G8K       0.146600
     14 C21         -5.3160    -2.7150     0.5120 c3         1 G8K       0.144900
     15 C3          -3.5240     1.7450    -0.6320 ca         1 G8K       0.146600
     16 C4          -2.7040     4.0060    -1.2370 c3         1 G8K       0.144900
     17 C5          -2.2860     1.3930    -0.0530 ca         1 G8K      -0.192500
     18 C6          -2.0900     0.1160     0.5020 ca         1 G8K      -0.091600
     19 C7          -0.7690    -0.2640     1.1390 c          1 G8K       0.512200
     20 C8           0.4950    -0.0690     0.3370 cd         1 G8K       0.161500
     21 C9           0.4980     0.3310    -0.9810 cc         1 G8K      -0.175000
     22 N1           1.8270     0.3760    -1.3500 na         1 G8K      -0.289500
     23 N2           6.7580    -0.9640     1.9630 na         1 G8K      -0.223700
     24 N3           1.8060    -0.2820     0.7540 nd         1 G8K      -0.613000
     25 O1          -5.7810     1.2600    -1.2460 os         1 G8K      -0.328100
     26 O2          -3.7280     2.9960    -1.1920 os         1 G8K      -0.323600
     27 O3          -0.7540    -0.7150     2.2830 o          1 G8K      -0.494100
     28 O4          -5.4410    -1.4000    -0.0590 os         1 G8K      -0.323600
     29 H1          -6.8000    -0.4260    -1.9690 h1         1 G8K       0.033367
     30 H2          -7.3750     0.1960    -0.3920 h1         1 G8K       0.033367
     31 H3          -7.7560     1.0640    -1.8890 h1         1 G8K       0.033367
     32 H4           4.2590     0.5790    -2.3790 ha         1 G8K       0.097000
     33 H5           6.7190     0.4590    -2.4490 ha         1 G8K       0.112000
     34 H6           8.0160    -0.2650    -0.4340 ha         1 G8K       0.115000
     35 H7           3.4900    -0.9680     2.5600 ha         1 G8K       0.233000
     36 H8           5.7920    -1.5170     3.8530 h4         1 G8K       0.214000
     37 H9          -2.9880    -1.7730     0.9550 ha         1 G8K       0.132000
     38 H10         -5.0820    -2.6550     1.5820 h1         1 G8K       0.042867
     39 H11         -6.2580    -3.2660     0.4010 h1         1 G8K       0.042867
     40 H12         -4.5280    -3.2870     0.0070 h1         1 G8K       0.042867
     41 H13         -2.3820     4.2810    -0.2240 h1         1 G8K       0.042867
     42 H14         -1.8320     3.6530    -1.8020 h1         1 G8K       0.042867
     43 H15         -3.0840     4.9100    -1.7290 h1         1 G8K       0.042867
     44 H16         -1.4670     2.1060    -0.0180 ha         1 G8K       0.132000
     45 H17         -0.3130     0.5670    -1.6610 h4         1 G8K       0.165000
     46 H18          2.1930     0.6330    -2.2580 hn         1 G8K       0.356000
     47 H19          7.7430    -1.0910     2.1810 hn         1 G8K       0.349000
@<TRIPOS>BOND
     1     1    25 1   
     2     1    29 1   
     3     1    30 1   
     4     1    31 1   
     5     2     3 1   
     6     2    22 1   
     7     2    24 2   
     8     3     4 ar  
     9     3     8 ar  
    10     4     5 ar  
    11     4    32 1   
    12     5     6 ar  
    13     5    33 1   
    14     6     7 ar  
    15     6    34 1   
    16     7     8 ar  
    17     7    23 1   
    18     8     9 1   
    19     9    10 2   
    20     9    35 1   
    21    10    23 1   
    22    10    36 1   
    23    11    13 ar  
    24    11    18 ar  
    25    11    37 1   
    26    12    13 ar  
    27    12    15 ar  
    28    12    25 1   
    29    13    28 1   
    30    14    28 1   
    31    14    38 1   
    32    14    39 1   
    33    14    40 1   
    34    15    17 ar  
    35    15    26 1   
    36    16    26 1   
    37    16    41 1   
    38    16    42 1   
    39    16    43 1   
    40    17    18 ar  
    41    17    44 1   
    42    18    19 1   
    43    19    20 1   
    44    19    27 2   
    45    20    21 2   
    46    20    24 1   
    47    21    22 1   
    48    21    45 1   
    49    22    46 1   
    50    23    47 1   
@<TRIPOS>SUBSTRUCTURE
     1 G8K         1 TEMP              0 ****  ****    0 ROOT
