@<TRIPOS>MOLECULE
G8L
   22    23     1     0     0
SMALL
bcc


@<TRIPOS>ATOM
      1 C1          75.1690     0.4550    18.0150 ca         1 G8L      -0.360800
      2 C2          73.1580     0.3320    19.3760 ca         1 G8L      -0.166300
      3 C3          72.4840    -0.2380    20.4780 ca         1 G8L      -0.060000
      4 C4          73.1170    -1.1870    21.2290 ca         1 G8L      -0.257300
      5 C5          74.4220    -1.5730    20.8680 ca         1 G8L       0.456200
      6 C6          74.4760    -0.1120    19.1160 ca         1 G8L       0.468600
      7 C7          74.5780     1.3940    17.2150 ca         1 G8L       0.011000
      8 C8          73.2630     1.8230    17.4820 ca         1 G8L      -0.155000
      9 C9          72.5700     1.3080    18.5410 ca         1 G8L      -0.053000
     10 N1          76.8990    -1.6470    17.5270 n8         1 G8L      -0.873700
     11 N2          75.0790    -1.0640    19.8590 nb         1 G8L      -0.712000
     12 O1          77.6370     0.3040    18.8880 o          1 G8L      -0.602300
     13 O2          77.2390     0.5530    16.4250 o          1 G8L      -0.602300
     14 S1          76.8560    -0.0170    17.7070 sy         1 G8L       1.292200
     15 H1          71.4760     0.0810    20.7100 ha         1 G8L       0.141000
     16 H2          72.6350    -1.6480    22.0800 ha         1 G8L       0.149000
     17 H3          74.9330    -2.3380    21.4420 h4         1 G8L       0.027100
     18 H4          75.1110     1.8170    16.3750 ha         1 G8L       0.166000
     19 H5          72.8100     2.5670    16.8410 ha         1 G8L       0.143000
     20 H6          71.5600     1.6380    18.7500 ha         1 G8L       0.138000
     21 H7          76.5770    -2.1310    18.3600 hn         1 G8L       0.425300
     22 H8          76.4130    -1.9710    16.6980 hn         1 G8L       0.425300
@<TRIPOS>BOND
     1     1     6 ar  
     2     1     7 ar  
     3     1    14 1   
     4     2     3 ar  
     5     2     6 ar  
     6     2     9 ar  
     7     3     4 ar  
     8     3    15 1   
     9     4     5 ar  
    10     4    16 1   
    11     5    11 ar  
    12     5    17 1   
    13     6    11 ar  
    14     7     8 ar  
    15     7    18 1   
    16     8     9 ar  
    17     8    19 1   
    18     9    20 1   
    19    10    14 1   
    20    10    21 1   
    21    10    22 1   
    22    12    14 2   
    23    13    14 2   
@<TRIPOS>SUBSTRUCTURE
     1 G8L         1 TEMP              0 ****  ****    0 ROOT
