@<TRIPOS>MOLECULE
G8L
   22    23     1     0     0
SMALL
No Charge or Current Charge


@<TRIPOS>ATOM
      1 C1          75.2230     0.4440    18.0080 ca         1 G8L      -0.295500
      2 C2          73.2010     0.2950    19.3550 ca         1 G8L      -0.101000
      3 C3          72.4860    -0.2660    20.4290 ca         1 G8L      -0.042000
      4 C4          73.1140    -1.2470    21.2060 ca         1 G8L      -0.174000
      5 C5          74.4200    -1.6340    20.8840 ca         1 G8L       0.390900
      6 C6          74.5300    -0.1360    19.0930 ca         1 G8L       0.338000
      7 C7          74.6010     1.4240    17.2050 ca         1 G8L       0.029000
      8 C8          73.2890     1.8350    17.4780 ca         1 G8L      -0.137000
      9 C9          72.5890     1.2750    18.5540 ca         1 G8L      -0.035000
     10 N1          76.8890    -1.6440    17.6530 n8         1 G8L      -0.984100
     11 N2          75.1120    -1.0990    19.8500 nb         1 G8L      -0.712000
     12 O1          77.7890     0.3570    18.7510 o          1 G8L      -0.531500
     13 O2          77.2400     0.3590    16.2570 o          1 G8L      -0.531500
     14 S1          76.9150    -0.0070    17.6360 sy         1 G8L       1.150600
     15 H1          71.4690     0.0480    20.6530 ha         1 G8L       0.123000
     16 H2          72.6000    -1.7090    22.0450 ha         1 G8L       0.131000
     17 H3          74.9320    -2.3990    21.4670 h4         1 G8L       0.027100
     18 H4          75.1320     1.8800    16.3700 ha         1 G8L       0.148000
     19 H5          72.8160     2.5920    16.8570 ha         1 G8L       0.125000
     20 H6          71.5710     1.5990    18.7610 ha         1 G8L       0.120000
     21 H7          76.3580    -1.7750    18.5200 hn         1 G8L       0.480500
     22 H8          76.1850    -1.8440    16.9490 hn         1 G8L       0.480500
@<TRIPOS>BOND
     1     1     6 ar  
     2     1     7 ar  
     3     1    14 1   
     4     2     3 ar  
     5     2     6 ar  
     6     2     9 ar  
     7     3     4 ar  
     8     3    15 1   
     9     4     5 ar  
    10     4    16 1   
    11     5    11 ar  
    12     5    17 1   
    13     6    11 ar  
    14     7     8 ar  
    15     7    18 1   
    16     8     9 ar  
    17     8    19 1   
    18     9    20 1   
    19    10    14 1   
    20    10    21 1   
    21    10    22 1   
    22    12    14 2   
    23    13    14 2   
@<TRIPOS>SUBSTRUCTURE
     1 G8L         1 TEMP              0 ****  ****    0 ROOT
