@<TRIPOS>MOLECULE
G8M
   21    21     1     0     0
SMALL
No Charge or Current Charge


@<TRIPOS>ATOM
      1 CD           5.9940    25.7540    20.8860 c          1 G8M       0.939600
      2 OE1          5.6440    24.7890    20.2190 o          1 G8M      -0.862800
      3 OE2          6.0210    25.5380    22.0950 o          1 G8M      -0.862800
      4 CG           6.1720    27.1890    20.1680 cy         1 G8M      -0.170700
      5 C            7.4070    25.3640    17.6670 c          1 G8M       0.935600
      6 OXT          6.8430    26.2210    16.9900 o          1 G8M      -0.854800
      7 O            7.4790    24.1950    17.2900 o          1 G8M      -0.854800
      8 CA           8.2640    25.7970    18.9470 c3         1 G8M       0.033500
      9 N            9.7610    25.9070    18.7370 n8         1 G8M      -0.898800
     10 CB           7.6680    27.0590    19.6390 cy         1 G8M       0.000300
     11 C6           8.1650    27.4510    21.0810 cy         1 G8M      -0.100400
     12 C7           6.7470    28.0810    21.3430 cy         1 G8M      -0.084400
     13 HG2          5.3570    27.5310    19.5240 hc         1 G8M       0.046700
     14 HA           8.1460    24.9720    19.6600 h1         1 G8M       0.041700
     15 H2          10.2210    26.0390    19.6430 hn         1 G8M       0.310300
     16 H1          10.1160    25.0100    18.3870 hn         1 G8M       0.310300
     17 HB2          7.8720    27.8800    18.9410 hc         1 G8M       0.022700
     18 H9           8.4220    26.6030    21.7250 hc         1 G8M       0.019200
     19 H10          9.0010    28.1570    21.1120 hc         1 G8M       0.019200
     20 H11          6.7110    29.1510    21.1110 hc         1 G8M       0.003700
     21 H12          6.3260    27.9660    22.3470 hc         1 G8M       0.003700
@<TRIPOS>BOND
     1     1     2 1   
     2     1     3 1   
     3     1     4 1   
     4     4    10 1   
     5     4    12 1   
     6     4    13 1   
     7     5     6 1   
     8     5     7 1   
     9     5     8 1   
    10     8     9 1   
    11     8    10 1   
    12     8    14 1   
    13     9    15 1   
    14     9    16 1   
    15    10    11 1   
    16    10    17 1   
    17    11    12 1   
    18    11    18 1   
    19    11    19 1   
    20    12    20 1   
    21    12    21 1   
@<TRIPOS>SUBSTRUCTURE
     1 G8M         1 TEMP              0 ****  ****    0 ROOT
