@<TRIPOS>MOLECULE
G8M
   21    21     1     0     0
SMALL
bcc


@<TRIPOS>ATOM
      1 CD           5.6750    25.8350    20.8590 c          1 G8M       0.939600
      2 OE1          4.6340    25.3810    20.3380 o          1 G8M      -0.862800
      3 OE2          6.2850    25.3320    21.8300 o          1 G8M      -0.862800
      4 CG           6.2480    27.1260    20.2550 cy         1 G8M      -0.170700
      5 C            7.6680    25.3360    17.6630 c          1 G8M       0.935600
      6 OXT          6.5590    25.7980    17.3340 o          1 G8M      -0.854800
      7 O            8.3780    24.5640    16.9810 o          1 G8M      -0.854800
      8 CA           8.2180    25.7090    19.0620 c3         1 G8M       0.033500
      9 N            9.6760    25.8160    18.9960 n8         1 G8M      -0.898800
     10 CB           7.6650    27.0090    19.6180 cy         1 G8M       0.000300
     11 C6           8.2640    27.5510    20.9320 cy         1 G8M      -0.100400
     12 C7           6.8690    28.0830    21.2970 cy         1 G8M      -0.084400
     13 HG2          5.5040    27.5750    19.5940 hc         1 G8M       0.046700
     14 HA           7.9090    24.8930    19.7370 h1         1 G8M       0.041700
     15 H2          10.0630    25.7040    19.9250 hn         1 G8M       0.310300
     16 H1          10.0170    25.0360    18.4490 hn         1 G8M       0.310300
     17 HB2          7.7600    27.7840    18.8500 hc         1 G8M       0.022700
     18 H9           8.5720    26.7480    21.6020 hc         1 G8M       0.019200
     19 H10          9.0810    28.2710    20.8540 hc         1 G8M       0.019200
     20 H11          6.7480    29.1280    21.0050 hc         1 G8M       0.003700
     21 H12          6.5440    27.9770    22.3320 hc         1 G8M       0.003700
@<TRIPOS>BOND
     1     1     2 1   
     2     1     3 1   
     3     1     4 1   
     4     4    10 1   
     5     4    12 1   
     6     4    13 1   
     7     5     6 1   
     8     5     7 1   
     9     5     8 1   
    10     8     9 1   
    11     8    10 1   
    12     8    14 1   
    13     9    15 1   
    14     9    16 1   
    15    10    11 1   
    16    10    17 1   
    17    11    12 1   
    18    11    18 1   
    19    11    19 1   
    20    12    20 1   
    21    12    21 1   
@<TRIPOS>SUBSTRUCTURE
     1 G8M         1 TEMP              0 ****  ****    0 ROOT
