@<TRIPOS>MOLECULE
G8N
   56    58     1     0     0
SMALL
abcg2


@<TRIPOS>ATOM
      1 N1          -3.7510     0.9460    -2.2540 n3         1 G8N      -0.706600
      2 C2          -3.0910     1.7920    -1.2790 c6         1 G8N       0.132300
      3 N3           3.0170    -3.7660     0.1390 nb         1 G8N      -0.749000
      4 C4          -5.0880    -0.0840    -0.4910 c6         1 G8N       0.207300
      5 N5           4.1800     0.8080    -0.4520 ns         1 G8N      -0.474900
      6 C6          -2.1950    -1.7460     1.1970 ca         1 G8N      -0.018500
      7 C10         -1.1940     0.4150     1.5810 ca         1 G8N      -0.018500
      8 C11          1.5050    -1.9610     0.4850 cp         1 G8N       0.254500
      9 C12          1.8260    -3.3210     0.4680 ca         1 G8N       0.400900
     10 C14          3.6600    -1.4940    -0.1620 ca         1 G8N       0.161500
     11 C15          4.6630    -0.4350    -0.4950 c          1 G8N       0.527600
     12 C16          4.9460     2.0010    -0.7220 c3         1 G8N       0.104000
     13 C17          4.1020     3.0060    -1.4760 c3         1 G8N       0.136600
     14 C18         -4.0090     2.0700    -0.1000 c6         1 G8N       0.207300
     15 C19          2.0390     4.1140    -1.3820 c3         1 G8N       0.146900
     16 C1          -2.9250     0.7460    -3.4240 c3         1 G8N       0.149100
     17 C3          -4.1380    -0.3140    -1.6540 c6         1 G8N       0.132300
     18 N2          -4.5310     0.8410     0.4940 n3         1 G8N      -0.747500
     19 S1          -3.9060     0.2760     1.9020 sy         1 G8N       1.170600
     20 O1          -3.7050     1.4300     2.7640 o          1 G8N      -0.537000
     21 O2          -4.7680    -0.8090     2.3420 o          1 G8N      -0.537000
     22 C5          -2.3110    -0.4100     1.5540 ca         1 G8N      -0.302500
     23 C7          -0.9550    -2.2510     0.8480 ca         1 G8N      -0.120500
     24 C8           0.1810    -1.4390     0.8570 cp         1 G8N      -0.062500
     25 C9           0.0400    -0.1000     1.2310 ca         1 G8N      -0.120500
     26 C13          3.9690    -2.8830    -0.1950 ca         1 G8N       0.639900
     27 N4           2.4550    -1.0910     0.1720 nb         1 G8N      -0.609000
     28 O3           5.8250    -0.7140    -0.7840 o          1 G8N      -0.649100
     29 N6           5.1590    -3.3710    -0.5450 nv         1 G8N      -1.051900
     30 O4           2.9600     3.2940    -0.7080 os         1 G8N      -0.462000
     31 H2          -2.1460     1.3460    -0.9260 h1         1 G8N       0.040950
     32 H3          -2.8360     2.7460    -1.7450 h1         1 G8N       0.040950
     33 H4          -6.0160     0.3620    -0.8590 h1         1 G8N       0.074700
     34 H5          -5.3530    -1.0270    -0.0200 h1         1 G8N       0.074700
     35 H6           3.2160     0.9150    -0.1720 hn         1 G8N       0.352500
     36 H7          -3.0570    -2.3990     1.1830 ha         1 G8N       0.134500
     37 H8          -1.2730     1.4520     1.8760 ha         1 G8N       0.134500
     38 H9           1.0970    -4.0740     0.7460 h4         1 G8N       0.030100
     39 H10          5.3130     2.4410     0.2110 h1         1 G8N       0.064200
     40 H11          5.8160     1.7460    -1.3250 h1         1 G8N       0.064200
     41 H12          4.6970     3.9100    -1.6630 h1         1 G8N       0.033700
     42 H13          3.8200     2.5910    -2.4540 h1         1 G8N       0.033700
     43 H14         -3.4930     2.6660     0.6500 h1         1 G8N       0.074700
     44 H15         -4.8700     2.6530    -0.4380 h1         1 G8N       0.074700
     45 H16          1.6990     3.6600    -2.3200 h1         1 G8N       0.030700
     46 H17          1.1760     4.2560    -0.7340 h1         1 G8N       0.030700
     47 H18          2.4620     5.0980    -1.6180 h1         1 G8N       0.030700
     48 H19         -3.4610     0.1460    -4.1610 h1         1 G8N       0.034033
     49 H20         -2.6870     1.7070    -3.8810 h1         1 G8N       0.034033
     50 H21         -1.9750     0.2360    -3.2010 h1         1 G8N       0.034033
     51 H22         -4.6510    -0.9240    -2.4010 h1         1 G8N       0.040950
     52 H23         -3.2620    -0.8920    -1.3120 h1         1 G8N       0.040950
     53 H24         -0.8880    -3.2900     0.5550 ha         1 G8N       0.124500
     54 H25          0.9070     0.5440     1.2620 ha         1 G8N       0.124500
     55 H26          5.3160    -4.3630    -0.5060 hn         1 G8N       0.522000
     56 H27          5.9180    -2.7450    -0.7590 hn         1 G8N       0.522000
@<TRIPOS>BOND
     1     1     2 1   
     2     1    16 1   
     3     1    17 1   
     4     2    14 1   
     5     2    31 1   
     6     2    32 1   
     7     3     9 ar  
     8     3    26 ar  
     9     4    17 1   
    10     4    18 1   
    11     4    33 1   
    12     4    34 1   
    13     5    11 1   
    14     5    12 1   
    15     5    35 1   
    16     6    22 ar  
    17     6    23 ar  
    18     6    36 1   
    19     7    22 ar  
    20     7    25 ar  
    21     7    37 1   
    22     8     9 ar  
    23     8    24 1   
    24     8    27 ar  
    25     9    38 1   
    26    10    11 1   
    27    10    26 ar  
    28    10    27 ar  
    29    11    28 2   
    30    12    13 1   
    31    12    39 1   
    32    12    40 1   
    33    13    30 1   
    34    13    41 1   
    35    13    42 1   
    36    14    18 1   
    37    14    43 1   
    38    14    44 1   
    39    15    30 1   
    40    15    45 1   
    41    15    46 1   
    42    15    47 1   
    43    16    48 1   
    44    16    49 1   
    45    16    50 1   
    46    17    51 1   
    47    17    52 1   
    48    18    19 1   
    49    19    20 2   
    50    19    21 2   
    51    19    22 1   
    52    23    24 ar  
    53    23    53 1   
    54    24    25 ar  
    55    25    54 1   
    56    26    29 1   
    57    29    55 1   
    58    29    56 1   
@<TRIPOS>SUBSTRUCTURE
     1 G8N         1 TEMP              0 ****  ****    0 ROOT
