@<TRIPOS>MOLECULE
G8N
   56    58     1     0     0
SMALL
No Charge or Current Charge


@<TRIPOS>ATOM
      1 N1          -6.0490     0.1570    -2.1960 n3         1 G8N      -0.706600
      2 C2          -4.6250    -0.3000    -2.2010 c6         1 G8N       0.132300
      3 N3           4.0670    -2.9580    -0.3840 nb         1 G8N      -0.749000
      4 C4          -5.6990     0.9620     0.1930 c6         1 G8N       0.207300
      5 N5           4.5570     1.7650     0.7850 ns         1 G8N      -0.474900
      6 C6          -1.6710    -2.1450     0.1190 ca         1 G8N      -0.018500
      7 C10         -1.2450    -0.1410     1.4290 ca         1 G8N      -0.018500
      8 C11          2.1350    -1.5430     0.2240 cp         1 G8N       0.254500
      9 C12          2.7300    -2.7910    -0.1750 ca         1 G8N       0.400900
     10 C14          4.2710    -0.6000     0.2230 ca         1 G8N       0.161500
     11 C15          5.1950     0.5860     0.4610 c          1 G8N       0.527600
     12 C16          5.2230     3.0590     0.9990 c3         1 G8N       0.104000
     13 C17          5.7050     3.7210    -0.3130 c3         1 G8N       0.136600
     14 C18         -3.7390     0.5220    -1.2100 c6         1 G8N       0.207300
     15 C19          4.8650     4.5890    -2.4110 c3         1 G8N       0.146900
     16 C1          -6.8970    -0.5930    -3.1470 c3         1 G8N       0.149100
     17 C3          -6.5990     0.1580    -0.8040 c6         1 G8N       0.132300
     18 N2          -4.2760     0.5120     0.1850 n3         1 G8N      -0.747500
     19 S1          -3.9230    -0.8480     1.1520 sy         1 G8N       1.170600
     20 O1          -4.0990    -0.3980     2.5370 o          1 G8N      -0.537000
     21 O2          -4.6530    -1.9970     0.6070 o          1 G8N      -0.537000
     22 C5          -2.1530    -1.0660     0.8840 ca         1 G8N      -0.302500
     23 C7          -0.2900    -2.2970    -0.0930 ca         1 G8N      -0.120500
     24 C8           0.6520    -1.3800     0.4500 cp         1 G8N      -0.062500
     25 C9           0.1350    -0.2970     1.2130 ca         1 G8N      -0.120500
     26 C13          4.8070    -1.8630    -0.1920 ca         1 G8N       0.639900
     27 N4           2.9190    -0.4470     0.4310 nb         1 G8N      -0.609000
     28 O3           6.4200     0.5260     0.3960 o          1 G8N      -0.649100
     29 N6           6.0930    -2.1620    -0.4490 nv         1 G8N      -1.051900
     30 O4           4.5570     3.9790    -1.1450 os         1 G8N      -0.462000
     31 H2          -4.5650    -1.3660    -1.9380 h1         1 G8N       0.040950
     32 H3          -4.2010    -0.2000    -3.2110 h1         1 G8N       0.040950
     33 H4          -5.7460     2.0210    -0.1000 h1         1 G8N       0.074700
     34 H5          -6.1300     0.9050     1.2040 h1         1 G8N       0.074700
     35 H6           3.5430     1.7230     0.8060 hn         1 G8N       0.352500
     36 H7          -2.3590    -2.8660    -0.3190 ha         1 G8N       0.134500
     37 H8          -1.6040     0.7040     2.0160 ha         1 G8N       0.134500
     38 H9           2.1200    -3.6810    -0.3180 h4         1 G8N       0.030100
     39 H10          4.5250     3.7350     1.5090 h1         1 G8N       0.064200
     40 H11          6.0850     2.9090     1.6620 h1         1 G8N       0.064200
     41 H12          6.2250     4.6570    -0.0710 h1         1 G8N       0.033700
     42 H13          6.4150     3.0560    -0.8210 h1         1 G8N       0.033700
     43 H14         -2.7020     0.1630    -1.2600 h1         1 G8N       0.074700
     44 H15         -3.7130     1.5580    -1.5780 h1         1 G8N       0.074700
     45 H16          5.5280     3.9450    -3.0030 h1         1 G8N       0.030700
     46 H17          3.9460     4.7550    -2.9870 h1         1 G8N       0.030700
     47 H18          5.3580     5.5590    -2.2670 h1         1 G8N       0.030700
     48 H19         -7.9180    -0.1890    -3.1570 h1         1 G8N       0.034033
     49 H20         -6.4940    -0.5200    -4.1660 h1         1 G8N       0.034033
     50 H21         -6.9490    -1.6550    -2.8720 h1         1 G8N       0.034033
     51 H22         -7.6050     0.6030    -0.7970 h1         1 G8N       0.040950
     52 H23         -6.7100    -0.8730    -0.4390 h1         1 G8N       0.040950
     53 H24          0.0410    -3.1330    -0.7020 ha         1 G8N       0.124500
     54 H25          0.8100     0.4330     1.6520 ha         1 G8N       0.124500
     55 H26          6.3280    -3.1460    -0.3970 hn         1 G8N       0.522000
     56 H27          6.7880    -1.4960    -0.1150 hn         1 G8N       0.522000
@<TRIPOS>BOND
     1     1     2 1   
     2     1    16 1   
     3     1    17 1   
     4     2    14 1   
     5     2    31 1   
     6     2    32 1   
     7     3     9 ar  
     8     3    26 ar  
     9     4    17 1   
    10     4    18 1   
    11     4    33 1   
    12     4    34 1   
    13     5    11 1   
    14     5    12 1   
    15     5    35 1   
    16     6    22 ar  
    17     6    23 ar  
    18     6    36 1   
    19     7    22 ar  
    20     7    25 ar  
    21     7    37 1   
    22     8     9 ar  
    23     8    24 1   
    24     8    27 ar  
    25     9    38 1   
    26    10    11 1   
    27    10    26 ar  
    28    10    27 ar  
    29    11    28 2   
    30    12    13 1   
    31    12    39 1   
    32    12    40 1   
    33    13    30 1   
    34    13    41 1   
    35    13    42 1   
    36    14    18 1   
    37    14    43 1   
    38    14    44 1   
    39    15    30 1   
    40    15    45 1   
    41    15    46 1   
    42    15    47 1   
    43    16    48 1   
    44    16    49 1   
    45    16    50 1   
    46    17    51 1   
    47    17    52 1   
    48    18    19 1   
    49    19    20 2   
    50    19    21 2   
    51    19    22 1   
    52    23    24 ar  
    53    23    53 1   
    54    24    25 ar  
    55    25    54 1   
    56    26    29 1   
    57    29    55 1   
    58    29    56 1   
@<TRIPOS>SUBSTRUCTURE
     1 G8N         1 TEMP              0 ****  ****    0 ROOT
