@<TRIPOS>MOLECULE
G8Q
   50    50     1     0     0
SMALL
bcc


@<TRIPOS>ATOM
      1 C13          2.1390    -3.3460    -1.5950 ca         1 G8Q      -0.124000
      2 C14          2.3690    -3.3480    -0.2260 ca         1 G8Q      -0.134000
      3 C15          1.6340    -2.5100     0.6030 ca         1 G8Q      -0.115000
      4 C22         -2.9690     0.6640    -1.7240 c3         1 G8Q      -0.105433
      5 C03         -0.1050    -0.7150     0.9780 c3         1 G8Q       0.223800
      6 C04          0.4410     0.7260     0.8020 c3         1 G8Q       0.379300
      7 C08          3.9940     1.8740     0.4900 c3         1 G8Q       0.031700
      8 C10          0.6650    -1.6610     0.0790 ca         1 G8Q      -0.100300
      9 C11          0.4360    -1.6690    -1.2960 ca         1 G8Q      -0.115000
     10 C12          1.1700    -2.5030    -2.1270 ca         1 G8Q      -0.134000
     11 C16         -2.4360     0.1660     1.1390 c3         1 G8Q       0.582100
     12 C20         -4.2150     2.2310    -0.2120 c3         1 G8Q      -0.105433
     13 C21         -5.3350     0.1870    -1.1000 c3         1 G8Q      -0.105433
     14 N02         -1.5250    -0.8510     0.6680 n3         1 G8Q      -0.795600
     15 N06          1.8860     0.7140     0.7970 n7         1 G8Q      -0.863200
     16 O05          0.0010     1.5950     1.8100 oh         1 G8Q      -0.590800
     17 O17         -2.6230     0.1770     2.5250 oh         1 G8Q      -0.605800
     18 O18         -3.6770    -0.0180     0.5330 os         1 G8Q      -0.452600
     19 S09          4.7190     3.4660    -0.0250 sh         1 G8Q      -0.408900
     20 H1           2.7070    -4.0000    -2.2440 ha         1 G8Q       0.132000
     21 H2           3.1160    -4.0050     0.1990 ha         1 G8Q       0.132000
     22 H3           1.8150    -2.5180     1.6720 ha         1 G8Q       0.139000
     23 H4          -2.7670    -0.3750    -1.9820 hc         1 G8Q       0.043144
     24 H5          -3.3370     1.1720    -2.6160 hc         1 G8Q       0.043144
     25 H6          -2.0230     1.1340    -1.4530 hc         1 G8Q       0.043144
     26 H7          -3.0500    -2.2880     0.7620 h1         1 G8Q       0.037700
     27 H8          -1.4840    -2.9170     0.3030 h1         1 G8Q       0.037700
     28 H9          -1.7860    -2.5190     1.9890 h1         1 G8Q       0.037700
     29 H10          0.1060    -1.0050     2.0230 h1         1 G8Q       0.042700
     30 H11          0.0270     1.1400    -0.1320 h2         1 G8Q       0.057700
     31 H12          2.1380     2.7620     1.0870 h1         1 G8Q       0.051700
     32 H13          2.1860     2.2880    -0.6070 h1         1 G8Q       0.051700
     33 H14          4.2990     1.6420     1.5100 h1         1 G8Q       0.063700
     34 H15          4.3580     1.0850    -0.1690 h1         1 G8Q       0.063700
     35 H16         -0.3350    -1.0320    -1.7110 ha         1 G8Q       0.139000
     36 H17          0.9800    -2.5010    -3.1920 ha         1 G8Q       0.132000
     37 H18         -2.0270     1.1460     0.9010 h3         1 G8Q       0.099700
     38 H19         -4.5690     2.8110    -1.0660 hc         1 G8Q       0.043144
     39 H20         -4.9560     2.3200     0.5840 hc         1 G8Q       0.043144
     40 H21         -3.2900     2.6990     0.1320 hc         1 G8Q       0.043144
     41 H22         -5.2210    -0.8580    -1.3950 hc         1 G8Q       0.043144
     42 H23         -6.1000     0.2430    -0.3240 hc         1 G8Q       0.043144
     43 H24         -5.6940     0.7430    -1.9660 hc         1 G8Q       0.043144
     44 H26          2.2270    -0.0080     0.1760 hn         1 G8Q       0.378800
     45 H28          0.3060     1.2510     2.6580 ho         1 G8Q       0.420000
     46 H29         -3.0260    -0.6530     2.8040 ho         1 G8Q       0.408000
     47 H30          6.0040     3.1310     0.1280 hs         1 G8Q       0.213800
     48 C07          2.4800     1.9810     0.4080 c3         1 G8Q       0.174800
     49 C01         -1.9840    -2.2010     0.9540 c3         1 G8Q       0.154100
     50 C19         -4.0140     0.7700    -0.6140 c3         1 G8Q       0.186800
@<TRIPOS>BOND
     1     1     2 ar  
     2     1    10 ar  
     3     1    20 1   
     4     2     3 ar  
     5     2    21 1   
     6     3     8 ar  
     7     3    22 1   
     8     4    23 1   
     9     4    24 1   
    10     4    25 1   
    11     4    50 1   
    12     5     6 1   
    13     5     8 1   
    14     5    14 1   
    15     5    29 1   
    16     6    15 1   
    17     6    16 1   
    18     6    30 1   
    19     7    19 1   
    20     7    33 1   
    21     7    34 1   
    22     7    48 1   
    23     8     9 ar  
    24     9    10 ar  
    25     9    35 1   
    26    10    36 1   
    27    11    14 1   
    28    11    17 1   
    29    11    18 1   
    30    11    37 1   
    31    12    38 1   
    32    12    39 1   
    33    12    40 1   
    34    12    50 1   
    35    13    41 1   
    36    13    42 1   
    37    13    43 1   
    38    13    50 1   
    39    14    49 1   
    40    15    44 1   
    41    15    48 1   
    42    16    45 1   
    43    17    46 1   
    44    18    50 1   
    45    19    47 1   
    46    26    49 1   
    47    27    49 1   
    48    28    49 1   
    49    31    48 1   
    50    32    48 1   
@<TRIPOS>SUBSTRUCTURE
     1 G8Q         1 TEMP              0 ****  ****    0 ROOT
