@<TRIPOS>MOLECULE
G8Q
   50    50     1     0     0
SMALL
No Charge or Current Charge


@<TRIPOS>ATOM
      1 C13          2.7290    -3.7890    -0.6210 ca         1 G8Q      -0.106000
      2 C14          2.4290    -3.6180     0.7410 ca         1 G8Q      -0.116000
      3 C15          1.5240    -2.6210     1.1430 ca         1 G8Q      -0.097000
      4 C22         -3.7490     1.9760    -1.3860 c3         1 G8Q      -0.105433
      5 C03         -0.0660    -0.6830     0.6310 c3         1 G8Q       0.223800
      6 C04          0.5470     0.7280     0.2280 c3         1 G8Q       0.402500
      7 C08          4.1960     1.8850     0.2860 c3         1 G8Q       0.079600
      8 C10          0.9120    -1.7850     0.1870 ca         1 G8Q      -0.100300
      9 C11          1.2160    -1.9650    -1.1790 ca         1 G8Q      -0.097000
     10 C12          2.1220    -2.9630    -1.5810 ca         1 G8Q      -0.116000
     11 C16         -2.4550     0.0470     0.5190 c3         1 G8Q       0.628500
     12 C20         -4.8990     1.7520     0.9020 c3         1 G8Q      -0.105433
     13 C21         -5.7850     0.4820    -1.1120 c3         1 G8Q      -0.105433
     14 N02         -1.4630    -0.9630     0.1340 n3         1 G8Q      -0.795600
     15 N06          1.9440     0.8660     0.6050 n7         1 G8Q      -0.918400
     16 O05          0.0460     1.7820     0.9840 oh         1 G8Q      -0.653000
     17 O17         -2.6680    -0.0980     1.8990 oh         1 G8Q      -0.668000
     18 O18         -3.7030    -0.1290    -0.1540 os         1 G8Q      -0.499000
     19 S09          5.2540     3.0920    -0.6470 sh         1 G8Q      -0.456800
     20 H1           3.4300    -4.5610    -0.9320 ha         1 G8Q       0.114000
     21 H2           2.8980    -4.2580     1.4840 ha         1 G8Q       0.114000
     22 H3           1.3010    -2.4970     2.2010 ha         1 G8Q       0.121000
     23 H4          -3.3590     1.4160    -2.2450 hc         1 G8Q       0.043144
     24 H5          -4.4130     2.7600    -1.7680 hc         1 G8Q       0.043144
     25 H6          -2.9100     2.4740    -0.8880 hc         1 G8Q       0.043144
     26 H7          -2.9340    -2.5210    -0.0460 h1         1 G8Q       0.037700
     27 H8          -1.2690    -3.0770    -0.1940 h1         1 G8Q       0.037700
     28 H9          -1.9070    -2.6380     1.4030 h1         1 G8Q       0.037700
     29 H10         -0.0840    -0.7050     1.7290 h1         1 G8Q       0.042700
     30 H11          0.3920     0.9100    -0.8450 h2         1 G8Q       0.057700
     31 H12          2.3040     2.8620    -0.0740 h1         1 G8Q       0.051700
     32 H13          2.7030     1.5980    -1.2510 h1         1 G8Q       0.051700
     33 H14          4.2290     2.1500     1.3510 h1         1 G8Q       0.063700
     34 H15          4.6340     0.8850     0.1720 h1         1 G8Q       0.063700
     35 H16          0.7450    -1.3350    -1.9300 ha         1 G8Q       0.121000
     36 H17          2.3500    -3.0960    -2.6360 ha         1 G8Q       0.114000
     37 H18         -2.0710     1.0650     0.3840 h3         1 G8Q       0.099700
     38 H19         -5.6410     2.5370     0.7120 hc         1 G8Q       0.043144
     39 H20         -5.3330     1.0440     1.6180 hc         1 G8Q       0.043144
     40 H21         -4.0280     2.2300     1.3660 hc         1 G8Q       0.043144
     41 H22         -5.5240    -0.0530    -2.0330 hc         1 G8Q       0.043144
     42 H23         -6.3160    -0.2130    -0.4510 hc         1 G8Q       0.043144
     43 H24         -6.4740     1.2940    -1.3740 hc         1 G8Q       0.043144
     44 H26          2.3640    -0.0560     0.4280 hn         1 G8Q       0.434000
     45 H28          0.8690     2.0030     1.4670 ho         1 G8Q       0.459000
     46 H29         -3.1280    -0.9540     1.9500 ho         1 G8Q       0.447000
     47 H30          6.4030     2.8350     0.0270 hs         1 G8Q       0.213800
     48 C07          2.7250     1.8530    -0.1820 c3         1 G8Q       0.174800
     49 C01         -1.9160    -2.3680     0.3380 c3         1 G8Q       0.154100
     50 C19         -4.5200     1.0380    -0.4210 c3         1 G8Q       0.210000
@<TRIPOS>BOND
     1     1     2 ar  
     2     1    10 ar  
     3     1    20 1   
     4     2     3 ar  
     5     2    21 1   
     6     3     8 ar  
     7     3    22 1   
     8     4    23 1   
     9     4    24 1   
    10     4    25 1   
    11     4    50 1   
    12     5     6 1   
    13     5     8 1   
    14     5    14 1   
    15     5    29 1   
    16     6    15 1   
    17     6    16 1   
    18     6    30 1   
    19     7    19 1   
    20     7    33 1   
    21     7    34 1   
    22     7    48 1   
    23     8     9 ar  
    24     9    10 ar  
    25     9    35 1   
    26    10    36 1   
    27    11    14 1   
    28    11    17 1   
    29    11    18 1   
    30    11    37 1   
    31    12    38 1   
    32    12    39 1   
    33    12    40 1   
    34    12    50 1   
    35    13    41 1   
    36    13    42 1   
    37    13    43 1   
    38    13    50 1   
    39    14    49 1   
    40    15    44 1   
    41    15    48 1   
    42    16    45 1   
    43    17    46 1   
    44    18    50 1   
    45    19    47 1   
    46    26    49 1   
    47    27    49 1   
    48    28    49 1   
    49    31    48 1   
    50    32    48 1   
@<TRIPOS>SUBSTRUCTURE
     1 G8Q         1 TEMP              0 ****  ****    0 ROOT
