@<TRIPOS>MOLECULE
G8R
   88    94     1     0     0
SMALL
No Charge or Current Charge


@<TRIPOS>ATOM
      1 C36         21.3370    22.4960    19.4780 ca         1 G8R      -0.115500
      2 C35         21.9620    23.5500    20.1640 ca         1 G8R      -0.113000
      3 C34         21.1840    24.5560    20.7610 ca         1 G8R      -0.115500
      4 C37         19.9350    22.4470    19.3870 ca         1 G8R      -0.099000
      5 C38         19.1490    23.4570    19.9750 ca         1 G8R      -0.081300
      6 C33         19.7820    24.5120    20.6640 ca         1 G8R      -0.099000
      7 C32         17.6260    23.4110    19.8610 c3         1 G8R      -0.042100
      8 C19         17.1190    23.5760    18.4010 c3         1 G8R       0.142700
      9 N20         17.6520    24.8140    17.8170 ns         1 G8R      -0.499900
     10 C21         18.6560    24.8720    16.8960 c          1 G8R       0.644100
     11 O23         18.9580    26.1780    16.6630 os         1 G8R      -0.468100
     12 C24         20.0790    26.5350    15.8310 c6         1 G8R       0.205300
     13 C31         21.4460    26.1810    16.5090 c5         1 G8R      -0.116700
     14 C27         22.7000    26.9440    15.9430 c5         1 G8R      -0.123700
     15 C30         21.5780    26.6050    17.9910 c5         1 G8R       0.162600
     16 O29         21.8440    28.0190    17.9210 os         1 G8R      -0.462000
     17 C28         22.7080    28.2600    16.7900 c5         1 G8R       0.370300
     18 O42         22.0790    29.2540    15.9460 os         1 G8R      -0.457000
     19 C41         21.3480    28.5740    14.9010 c5         1 G8R       0.166300
     20 C26         22.3670    27.4700    14.5090 c5         1 G8R      -0.108400
     21 C25         19.9940    28.0350    15.4550 c6         1 G8R      -0.107400
     22 O22         19.1890    23.9100    16.3710 o          1 G8R      -0.540000
     23 C17         15.5700    23.5130    18.2290 c3         1 G8R       0.151300
     24 O18         14.9250    24.4750    19.0930 oh         1 G8R      -0.662000
     25 C16         14.9800    22.0890    18.4720 c3         1 G8R       0.177800
     26 N11         15.4830    21.0250    17.5500 n3         1 G8R      -0.727500
     27 C12         14.6040    20.7790    16.3700 c3         1 G8R       0.201800
     28 C13         14.4560    21.9410    15.3510 c3         1 G8R      -0.060700
     29 C15         13.4520    21.5690    14.2360 c3         1 G8R      -0.092100
     30 C14         15.8150    22.3660    14.7420 c3         1 G8R      -0.092100
     31 S8          15.9580    19.5850    18.3460 sy         1 G8R       1.162600
     32 O9          16.8730    19.9920    19.4170 o          1 G8R      -0.534000
     33 O10         16.4090    18.6610    17.3000 o          1 G8R      -0.534000
     34 C5          14.4130    18.9920    19.0520 ca         1 G8R      -0.329500
     35 C6          14.0430    19.3500    20.3700 ca         1 G8R      -0.011000
     36 C7          12.8280    18.8880    20.9130 ca         1 G8R      -0.106000
     37 C2          11.9870    18.0690    20.1460 ca         1 G8R       0.204400
     38 N52         10.7710    17.5730    20.6110 nc         1 G8R      -0.651100
     39 C4          13.5700    18.1610    18.2870 ca         1 G8R       0.043000
     40 C3          12.3680    17.7220    18.8600 ca         1 G8R      -0.236000
     41 S51         11.1790    16.6950    18.0810 ss         1 G8R      -0.006200
     42 C53         10.2770    16.8510    19.6120 cd         1 G8R       0.667100
     43 N54          9.0790    16.2710    19.8570 nu         1 G8R      -0.854400
     44 C55          8.3460    15.4030    18.9830 cx         1 G8R       0.144500
     45 C57          7.5230    16.0490    17.8970 cx         1 G8R      -0.125400
     46 C56          6.8420    15.4230    19.0890 cx         1 G8R      -0.125400
     47 H1          21.9380    21.7150    19.0180 ha         1 G8R       0.109500
     48 H2          23.0470    23.5870    20.2350 ha         1 G8R       0.107000
     49 H3          21.6660    25.3730    21.2930 ha         1 G8R       0.109500
     50 H4          19.4600    21.6250    18.8560 ha         1 G8R       0.121000
     51 H5          19.1890    25.3000    21.1240 ha         1 G8R       0.121000
     52 H6          17.1810    24.1940    20.4850 hc         1 G8R       0.062700
     53 H7          17.2650    22.4630    20.2710 hc         1 G8R       0.062700
     54 H8          17.5270    22.7350    17.8230 h1         1 G8R       0.100700
     55 H9          17.3030    25.7010    18.1550 hn         1 G8R       0.330500
     56 H10         20.0030    25.9620    14.8940 h1         1 G8R       0.063700
     57 H11         21.5630    25.0970    16.4010 hc         1 G8R       0.087700
     58 H12         23.6350    26.3770    16.0140 hc         1 G8R       0.079700
     59 H13         20.6740    26.4190    18.5850 h1         1 G8R       0.053700
     60 H14         22.4270    26.1060    18.4790 h1         1 G8R       0.053700
     61 H15         23.7150    28.5710    17.1020 h2         1 G8R       0.090700
     62 H16         21.1520    29.2800    14.0810 h1         1 G8R       0.082700
     63 H17         21.9620    26.7080    13.8340 hc         1 G8R       0.064700
     64 H18         23.2490    27.9010    14.0200 hc         1 G8R       0.064700
     65 H19         19.6790    28.6310    16.3220 hc         1 G8R       0.067200
     66 H20         19.2140    28.1650    14.6950 hc         1 G8R       0.067200
     67 H21         15.3640    23.7890    17.1900 h1         1 G8R       0.052700
     68 H22         14.0190    24.6250    18.7430 ho         1 G8R       0.444000
     69 H23         13.8850    22.1460    18.4050 h1         1 G8R       0.054700
     70 H24         15.1930    21.8390    19.5180 h1         1 G8R       0.054700
     71 H25         13.6000    20.4990    16.7170 h1         1 G8R       0.051200
     72 H26         14.9790    19.9250    15.7920 h1         1 G8R       0.051200
     73 H27         14.0220    22.8030    15.8700 hc         1 G8R       0.041700
     74 H28         12.4740    21.3160    14.6630 hc         1 G8R       0.040367
     75 H29         13.3120    22.4080    13.5440 hc         1 G8R       0.040367
     76 H30         13.8080    20.7060    13.6600 hc         1 G8R       0.040367
     77 H31         16.5310    22.6510    15.5200 hc         1 G8R       0.040367
     78 H32         16.2560    21.5430    14.1660 hc         1 G8R       0.040367
     79 H33         15.6880    23.2240    14.0710 hc         1 G8R       0.040367
     80 H34         14.6890    19.9820    20.9760 ha         1 G8R       0.138000
     81 H35         12.5420    19.1640    21.9240 ha         1 G8R       0.136000
     82 H36         13.8340    17.8640    17.2730 ha         1 G8R       0.137000
     83 H37          8.7650    16.4730    20.8030 hn         1 G8R       0.516000
     84 H38          8.8300    14.4490    18.7560 h1         1 G8R       0.092700
     85 H39          7.4560    15.5320    16.9430 hc         1 G8R       0.085200
     86 H40          7.5300    17.1340    17.8280 hc         1 G8R       0.085200
     87 H41          6.3850    16.0880    19.8180 hc         1 G8R       0.085200
     88 H42          6.3160    14.4840    18.9370 hc         1 G8R       0.085200
@<TRIPOS>BOND
     1     1     2 ar  
     2     1     4 ar  
     3     1    47 1   
     4     2     3 ar  
     5     2    48 1   
     6     3     6 ar  
     7     3    49 1   
     8     4     5 ar  
     9     4    50 1   
    10     5     6 ar  
    11     5     7 1   
    12     6    51 1   
    13     7     8 1   
    14     7    52 1   
    15     7    53 1   
    16     8     9 1   
    17     8    23 1   
    18     8    54 1   
    19     9    10 1   
    20     9    55 1   
    21    10    11 1   
    22    10    22 2   
    23    11    12 1   
    24    12    13 1   
    25    12    21 1   
    26    12    56 1   
    27    13    14 1   
    28    13    15 1   
    29    13    57 1   
    30    14    17 1   
    31    14    20 1   
    32    14    58 1   
    33    15    16 1   
    34    15    59 1   
    35    15    60 1   
    36    16    17 1   
    37    17    18 1   
    38    17    61 1   
    39    18    19 1   
    40    19    20 1   
    41    19    21 1   
    42    19    62 1   
    43    20    63 1   
    44    20    64 1   
    45    21    65 1   
    46    21    66 1   
    47    23    24 1   
    48    23    25 1   
    49    23    67 1   
    50    24    68 1   
    51    25    26 1   
    52    25    69 1   
    53    25    70 1   
    54    26    27 1   
    55    26    31 1   
    56    27    28 1   
    57    27    71 1   
    58    27    72 1   
    59    28    29 1   
    60    28    30 1   
    61    28    73 1   
    62    29    74 1   
    63    29    75 1   
    64    29    76 1   
    65    30    77 1   
    66    30    78 1   
    67    30    79 1   
    68    31    32 2   
    69    31    33 2   
    70    31    34 1   
    71    34    35 ar  
    72    34    39 ar  
    73    35    36 ar  
    74    35    80 1   
    75    36    37 ar  
    76    36    81 1   
    77    37    38 1   
    78    37    40 ar  
    79    38    42 2   
    80    39    40 ar  
    81    39    82 1   
    82    40    41 1   
    83    41    42 1   
    84    42    43 1   
    85    43    44 1   
    86    43    83 1   
    87    44    45 1   
    88    44    46 1   
    89    44    84 1   
    90    45    46 1   
    91    45    85 1   
    92    45    86 1   
    93    46    87 1   
    94    46    88 1   
@<TRIPOS>SUBSTRUCTURE
     1 G8R         1 TEMP              0 ****  ****    0 ROOT
