@<TRIPOS>MOLECULE
G8R
   88    94     1     0     0
SMALL
abcg2


@<TRIPOS>ATOM
      1 C36         21.0250    22.0180    19.9530 ca         1 G8R      -0.115500
      2 C35         21.7390    23.1540    20.3160 ca         1 G8R      -0.113000
      3 C34         21.0560    24.3340    20.5760 ca         1 G8R      -0.115500
      4 C37         19.6420    22.0680    19.8450 ca         1 G8R      -0.099000
      5 C38         18.9460    23.2500    20.0950 ca         1 G8R      -0.081300
      6 C33         19.6730    24.3800    20.4640 ca         1 G8R      -0.099000
      7 C32         17.4540    23.3180    19.9210 c3         1 G8R      -0.042100
      8 C19         17.0730    23.5480    18.4490 c3         1 G8R       0.142700
      9 N20         17.6680    24.7710    17.9590 ns         1 G8R      -0.499900
     10 C21         18.7080    24.8160    17.1090 c          1 G8R       0.644100
     11 O23         19.0630    26.0910    16.8850 os         1 G8R      -0.468100
     12 C24         20.1690    26.3570    16.0240 c6         1 G8R       0.205300
     13 C31         21.5050    26.2720    16.7750 c5         1 G8R      -0.116700
     14 C27         22.6150    26.9730    15.9660 c5         1 G8R      -0.123700
     15 C30         21.5620    27.0170    18.1030 c5         1 G8R       0.162600
     16 O29         22.0200    28.3300    17.8220 os         1 G8R      -0.462000
     17 C28         22.6030    28.3930    16.5550 c5         1 G8R       0.370300
     18 O42         21.8290    29.1710    15.6780 os         1 G8R      -0.457000
     19 C41         21.1780    28.3050    14.7510 c5         1 G8R       0.166300
     20 C26         22.2290    27.2270    14.5130 c5         1 G8R      -0.108400
     21 C25         19.9020    27.7020    15.3500 c6         1 G8R      -0.107400
     22 O22         19.2460    23.8580    16.5920 o          1 G8R      -0.540000
     23 C17         15.5650    23.6150    18.2030 c3         1 G8R       0.151300
     24 O18         15.0360    24.5960    19.0660 oh         1 G8R      -0.662000
     25 C16         14.8200    22.2930    18.4140 c3         1 G8R       0.177800
     26 N11         15.1420    21.2770    17.4110 n3         1 G8R      -0.727500
     27 C12         14.2360    21.2090    16.2580 c3         1 G8R       0.201800
     28 C13         14.5180    22.2580    15.1830 c3         1 G8R      -0.060700
     29 C15         13.5400    22.0370    14.0320 c3         1 G8R      -0.092100
     30 C14         15.9580    22.1970    14.6940 c3         1 G8R      -0.092100
     31 S8          15.7360    19.8360    17.9730 sy         1 G8R       1.162600
     32 O9          16.7780    20.1470    18.9390 o          1 G8R      -0.534000
     33 O10         16.0670    19.0240    16.8130 o          1 G8R      -0.534000
     34 C5          14.4130    19.0550    18.8460 ca         1 G8R      -0.329500
     35 C6          14.2940    19.2420    20.2250 ca         1 G8R      -0.011000
     36 C7          13.2250    18.7000    20.9120 ca         1 G8R      -0.106000
     37 C2          12.2630    17.9650    20.2200 ca         1 G8R       0.204400
     38 N52         11.1630    17.3820    20.7740 nc         1 G8R      -0.651100
     39 C4          13.4760    18.3200    18.1280 ca         1 G8R       0.043000
     40 C3          12.4130    17.7880    18.8290 ca         1 G8R      -0.236000
     41 S51         11.0890    16.8400    18.2220 ss         1 G8R      -0.006200
     42 C53         10.4590    16.7750    19.8660 cd         1 G8R       0.667100
     43 N54          9.3160    16.1280    20.1000 nu         1 G8R      -0.854400
     44 C55          8.6260    15.3790    19.1040 cx         1 G8R       0.144500
     45 C57          7.9380    16.1220    17.9940 cx         1 G8R      -0.125400
     46 C56          7.1370    15.4690    19.0740 cx         1 G8R      -0.125400
     47 H1          21.5460    21.0910    19.7530 ha         1 G8R       0.109500
     48 H2          22.8170    23.1160    20.4010 ha         1 G8R       0.107000
     49 H3          21.6010    25.2230    20.8660 ha         1 G8R       0.109500
     50 H4          19.0950    21.1790    19.5570 ha         1 G8R       0.121000
     51 H5          19.1510    25.3060    20.6710 ha         1 G8R       0.121000
     52 H6          17.0490    24.1260    20.5340 hc         1 G8R       0.062700
     53 H7          16.9960    22.3920    20.2680 hc         1 G8R       0.062700
     54 H8          17.4680    22.7250    17.8520 h1         1 G8R       0.100700
     55 H9          17.3350    25.6390    18.3510 hn         1 G8R       0.330500
     56 H10         20.1960    25.5920    15.2450 h1         1 G8R       0.063700
     57 H11         21.7380    25.2180    16.9330 hc         1 G8R       0.087700
     58 H12         23.5770    26.4790    16.0940 hc         1 G8R       0.079700
     59 H13         20.6010    27.0720    18.6190 h1         1 G8R       0.053700
     60 H14         22.2660    26.5160    18.7770 h1         1 G8R       0.053700
     61 H15         23.5880    28.8610    16.6440 h2         1 G8R       0.090700
     62 H16         20.9410    28.8980    13.8670 h1         1 G8R       0.082700
     63 H17         21.8570    26.3460    13.9890 hc         1 G8R       0.064700
     64 H18         23.0720    27.6210    13.9440 hc         1 G8R       0.064700
     65 H19         19.4650    28.4160    16.0530 hc         1 G8R       0.067200
     66 H20         19.1620    27.5500    14.5620 hc         1 G8R       0.067200
     67 H21         15.4400    23.9200    17.1570 h1         1 G8R       0.052700
     68 H22         14.1680    24.8590    18.7420 ho         1 G8R       0.444000
     69 H23         13.7450    22.4940    18.3620 h1         1 G8R       0.054700
     70 H24         15.0070    21.9260    19.4240 h1         1 G8R       0.054700
     71 H25         13.2010    21.3010    16.6070 h1         1 G8R       0.051200
     72 H26         14.3270    20.2310    15.7860 h1         1 G8R       0.051200
     73 H27         14.3200    23.2540    15.5910 hc         1 G8R       0.041700
     74 H28         12.5030    22.0870    14.3700 hc         1 G8R       0.040367
     75 H29         13.6750    22.7940    13.2590 hc         1 G8R       0.040367
     76 H30         13.6960    21.0580    13.5720 hc         1 G8R       0.040367
     77 H31         16.6740    22.4240    15.4840 hc         1 G8R       0.040367
     78 H32         16.1950    21.2030    14.3080 hc         1 G8R       0.040367
     79 H33         16.1220    22.9140    13.8880 hc         1 G8R       0.040367
     80 H34         15.0410    19.8040    20.7690 ha         1 G8R       0.138000
     81 H35         13.1330    18.8390    21.9810 ha         1 G8R       0.136000
     82 H36         13.5740    18.1630    17.0620 ha         1 G8R       0.137000
     83 H37          9.0390    16.0330    21.0670 hn         1 G8R       0.516000
     84 H38          9.0690    14.4180    18.8560 h1         1 G8R       0.092700
     85 H39          7.9540    15.6720    17.0100 hc         1 G8R       0.085200
     86 H40          7.9990    17.2030    18.0000 hc         1 G8R       0.085200
     87 H41          6.6630    16.1120    19.8050 hc         1 G8R       0.085200
     88 H42          6.5900    14.5650    18.8440 hc         1 G8R       0.085200
@<TRIPOS>BOND
     1     1     2 ar  
     2     1     4 ar  
     3     1    47 1   
     4     2     3 ar  
     5     2    48 1   
     6     3     6 ar  
     7     3    49 1   
     8     4     5 ar  
     9     4    50 1   
    10     5     6 ar  
    11     5     7 1   
    12     6    51 1   
    13     7     8 1   
    14     7    52 1   
    15     7    53 1   
    16     8     9 1   
    17     8    23 1   
    18     8    54 1   
    19     9    10 1   
    20     9    55 1   
    21    10    11 1   
    22    10    22 2   
    23    11    12 1   
    24    12    13 1   
    25    12    21 1   
    26    12    56 1   
    27    13    14 1   
    28    13    15 1   
    29    13    57 1   
    30    14    17 1   
    31    14    20 1   
    32    14    58 1   
    33    15    16 1   
    34    15    59 1   
    35    15    60 1   
    36    16    17 1   
    37    17    18 1   
    38    17    61 1   
    39    18    19 1   
    40    19    20 1   
    41    19    21 1   
    42    19    62 1   
    43    20    63 1   
    44    20    64 1   
    45    21    65 1   
    46    21    66 1   
    47    23    24 1   
    48    23    25 1   
    49    23    67 1   
    50    24    68 1   
    51    25    26 1   
    52    25    69 1   
    53    25    70 1   
    54    26    27 1   
    55    26    31 1   
    56    27    28 1   
    57    27    71 1   
    58    27    72 1   
    59    28    29 1   
    60    28    30 1   
    61    28    73 1   
    62    29    74 1   
    63    29    75 1   
    64    29    76 1   
    65    30    77 1   
    66    30    78 1   
    67    30    79 1   
    68    31    32 2   
    69    31    33 2   
    70    31    34 1   
    71    34    35 ar  
    72    34    39 ar  
    73    35    36 ar  
    74    35    80 1   
    75    36    37 ar  
    76    36    81 1   
    77    37    38 1   
    78    37    40 ar  
    79    38    42 2   
    80    39    40 ar  
    81    39    82 1   
    82    40    41 1   
    83    41    42 1   
    84    42    43 1   
    85    43    44 1   
    86    43    83 1   
    87    44    45 1   
    88    44    46 1   
    89    44    84 1   
    90    45    46 1   
    91    45    85 1   
    92    45    86 1   
    93    46    87 1   
    94    46    88 1   
@<TRIPOS>SUBSTRUCTURE
     1 G8R         1 TEMP              0 ****  ****    0 ROOT
