@<TRIPOS>MOLECULE
G8S
   83    87     1     0     0
SMALL
No Charge or Current Charge


@<TRIPOS>ATOM
      1 Cl         -10.1390    -4.0550    -4.4060 cl         1 G8S      -0.147000
      2 CAA         13.0440    -1.8550    -3.1520 c3         1 G8S       0.034400
      3 CAB         12.2540    -4.0110    -2.1470 c3         1 G8S       0.034400
      4 CAC         -9.4940    -0.8690     1.5540 c3         1 G8S       0.040900
      5 CAE        -10.7710    -2.3790    -2.3260 ca         1 G8S      -0.089000
      6 CAF         -8.4100    -2.8720    -2.6330 ca         1 G8S      -0.089000
      7 CAG          5.9290     0.3890     0.2890 ca         1 G8S      -0.102500
      8 CAH          6.2830     2.5220     1.3940 ca         1 G8S      -0.102500
      9 CAI         -1.7020     1.4190     0.6250 ca         1 G8S      -0.102500
     10 CAJ         -1.3890     3.5190     1.8050 ca         1 G8S      -0.102500
     11 CAK          7.2070    -0.0330     0.6920 ca         1 G8S      -0.082500
     12 CAL          7.5620     2.1030     1.7970 ca         1 G8S      -0.082500
     13 CAM         -2.9820     1.8370     0.2200 ca         1 G8S      -0.082000
     14 CAN         -2.6690     3.9380     1.4010 ca         1 G8S      -0.082000
     15 CAO        -10.4580    -1.5620    -1.2250 ca         1 G8S      -0.090500
     16 CAP         -8.0960    -2.0550    -1.5330 ca         1 G8S      -0.090500
     17 CAQ         11.1880    -0.4770    -1.3130 cc         1 G8S      -0.382100
     18 CAR         11.2160    -2.4160     0.1140 cc         1 G8S      -0.382100
     19 CAS         -7.1870     0.9090     1.4610 cc         1 G8S      -0.375100
     20 CAT         -7.4490     1.0640    -0.9270 cc         1 G8S      -0.375100
     21 CAU         10.5030     0.2450    -0.3610 cd         1 G8S       0.074000
     22 CAV         10.5330    -1.7360     1.0980 cd         1 G8S       0.074000
     23 CAW         -6.2390     1.9090     1.4450 cd         1 G8S       0.069500
     24 CAX         -6.5100     2.0690    -0.9960 cd         1 G8S       0.069500
     25 CAY          2.9900     1.7410     1.2360 c3         1 G8S      -0.073400
     26 CAZ          1.5700     2.1880     0.8220 c3         1 G8S      -0.074400
     27 CBA          4.0720     2.1230     0.2030 c3         1 G8S      -0.040100
     28 CBC          9.4300     0.3770     1.8940 c3         1 G8S       0.253100
     29 CBD         -4.8670     3.5680     0.1730 c3         1 G8S       0.252100
     30 CBE         -9.7470    -3.0340    -3.0280 ca         1 G8S       0.139000
     31 CBF          5.4600     1.6700     0.6350 ca         1 G8S      -0.041300
     32 CBG         -0.9000     2.2560     1.4220 ca         1 G8S      -0.041300
     33 CBH          8.0370     0.8240     1.4450 ca         1 G8S      -0.159300
     34 CBI         -3.4780     3.0980     0.6100 ca         1 G8S      -0.157300
     35 CBJ         11.5700    -1.8240    -1.1200 cc         1 G8S       0.434900
     36 CBK         -9.1170    -1.3960    -0.8150 ca         1 G8S      -0.070200
     37 CBL         -7.8250     0.4450     0.2850 cc         1 G8S       0.443900
     38 NBM         12.2610    -2.5340    -2.0990 nh         1 G8S      -0.271700
     39 NBN         -8.7850    -0.5700     0.2880 nh         1 G8S      -0.184500
     40 NBO         10.1710    -0.3870     0.8610 na         1 G8S      -0.426200
     41 NBP         -5.8940     2.4980     0.2050 na         1 G8S      -0.422200
     42 HAA         13.8040    -2.5270    -3.5720 h1         1 G8S       0.071200
     43 HAAA        12.3840    -1.5280    -3.9660 h1         1 G8S       0.071200
     44 HAAB        13.5630    -0.9790    -2.7430 h1         1 G8S       0.071200
     45 HAB         12.9890    -4.4190    -1.4410 h1         1 G8S       0.071200
     46 HABA        11.2610    -4.4010    -1.8870 h1         1 G8S       0.071200
     47 HABB        12.5020    -4.3730    -3.1530 h1         1 G8S       0.071200
     48 HAC         -8.8190    -1.3660     2.2610 h1         1 G8S       0.071367
     49 HACA        -9.8770     0.0550     2.0070 h1         1 G8S       0.071367
     50 HACB       -10.3470    -1.5380     1.3890 h1         1 G8S       0.071367
     51 HAE        -11.8050    -2.5030    -2.6380 ha         1 G8S       0.152000
     52 HAF         -7.6190    -3.3790    -3.1800 ha         1 G8S       0.152000
     53 HAG          5.3000    -0.2830    -0.2910 ha         1 G8S       0.128500
     54 HAH          5.9300     3.5130     1.6740 ha         1 G8S       0.128500
     55 HAI         -1.3340     0.4440     0.3160 ha         1 G8S       0.128500
     56 HAJ         -0.7760     4.1790     2.4150 ha         1 G8S       0.128500
     57 HAK          7.5500    -1.0280     0.4160 ha         1 G8S       0.115500
     58 HAL          8.1830     2.7760     2.3850 ha         1 G8S       0.115500
     59 HAM         -3.5850     1.1750    -0.3990 ha         1 G8S       0.114500
     60 HAN         -3.0290     4.9180     1.7060 ha         1 G8S       0.114500
     61 HAO        -11.2620    -1.0500    -0.7000 ha         1 G8S       0.132500
     62 HAP         -7.0560    -1.9400    -1.2330 ha         1 G8S       0.132500
     63 HAQ         11.4280     0.0040    -2.2540 ha         1 G8S       0.231500
     64 HAR         11.5050    -3.4440     0.3010 ha         1 G8S       0.231500
     65 HAS         -7.4350     0.4540     2.4120 ha         1 G8S       0.236000
     66 HAT         -7.9360     0.7360    -1.8390 ha         1 G8S       0.236000
     67 HAU         10.1900     1.2810    -0.4960 h4         1 G8S       0.239000
     68 HAV         10.2560    -2.1810     2.0550 h4         1 G8S       0.239000
     69 HAW         -5.7280     2.2720     2.3370 h4         1 G8S       0.237500
     70 HAX         -6.2140     2.5540    -1.9260 h4         1 G8S       0.237500
     71 HAY          3.2440     2.1920     2.2040 hc         1 G8S       0.046700
     72 HAYA         2.9990     0.6530     1.3780 hc         1 G8S       0.046700
     73 HAZ          1.5610     3.2760     0.6800 hc         1 G8S       0.047200
     74 HAZA         1.3170     1.7370    -0.1460 hc         1 G8S       0.047200
     75 HBA          3.8170     1.6790    -0.7670 hc         1 G8S       0.057200
     76 HBAA         4.0600     3.2100     0.0540 hc         1 G8S       0.057200
     77 HBB          0.5010     0.7180     2.0040 hc         1 G8S       0.057200
     78 HBBA         0.7430     2.2490     2.8250 hc         1 G8S       0.057200
     79 HBC         10.0280     1.2570     2.1680 h1         1 G8S       0.088700
     80 HBCA         9.3270    -0.2310     2.8030 h1         1 G8S       0.088700
     81 HBD         -5.2000     4.3860     0.8260 h1         1 G8S       0.088700
     82 HBDA        -4.7940     3.9820    -0.8410 h1         1 G8S       0.088700
     83 CBB          0.4890     1.8050     1.8550 c3         1 G8S      -0.040100
@<TRIPOS>BOND
     1     1    30 1   
     2     2    38 1   
     3     2    42 1   
     4     2    43 1   
     5     2    44 1   
     6     3    38 1   
     7     3    45 1   
     8     3    46 1   
     9     3    47 1   
    10     4    39 1   
    11     4    48 1   
    12     4    49 1   
    13     4    50 1   
    14     5    15 ar  
    15     5    30 ar  
    16     5    51 1   
    17     6    16 ar  
    18     6    30 ar  
    19     6    52 1   
    20     7    11 ar  
    21     7    31 ar  
    22     7    53 1   
    23     8    12 ar  
    24     8    31 ar  
    25     8    54 1   
    26     9    13 ar  
    27     9    32 ar  
    28     9    55 1   
    29    10    14 ar  
    30    10    32 ar  
    31    10    56 1   
    32    11    33 ar  
    33    11    57 1   
    34    12    33 ar  
    35    12    58 1   
    36    13    34 ar  
    37    13    59 1   
    38    14    34 ar  
    39    14    60 1   
    40    15    36 ar  
    41    15    61 1   
    42    16    36 ar  
    43    16    62 1   
    44    17    21 2   
    45    17    35 1   
    46    17    63 1   
    47    18    22 2   
    48    18    35 1   
    49    18    64 1   
    50    19    23 2   
    51    19    37 1   
    52    19    65 1   
    53    20    24 2   
    54    20    37 1   
    55    20    66 1   
    56    21    40 1   
    57    21    67 1   
    58    22    40 1   
    59    22    68 1   
    60    23    41 1   
    61    23    69 1   
    62    24    41 1   
    63    24    70 1   
    64    25    26 1   
    65    25    27 1   
    66    25    71 1   
    67    25    72 1   
    68    26    73 1   
    69    26    74 1   
    70    26    83 1   
    71    27    31 1   
    72    27    75 1   
    73    27    76 1   
    74    28    33 1   
    75    28    40 1   
    76    28    79 1   
    77    28    80 1   
    78    29    34 1   
    79    29    41 1   
    80    29    81 1   
    81    29    82 1   
    82    32    83 1   
    83    35    38 2   
    84    36    39 1   
    85    37    39 2   
    86    77    83 1   
    87    78    83 1   
@<TRIPOS>SUBSTRUCTURE
     1 G8S         1 TEMP              0 ****  ****    0 ROOT
