@<TRIPOS>MOLECULE
G8S
   83    87     1     0     0
SMALL
bcc


@<TRIPOS>ATOM
      1 CL         -11.8370    -3.8790    -1.5900 cl         1 G8S      -0.055400
      2 CAA         13.7110     0.9740    -1.6050 c3         1 G8S       0.005100
      3 CAB         13.7720    -1.4490    -2.2550 c3         1 G8S       0.005100
      4 CAC         -9.4250     1.0460     2.2610 c3         1 G8S       0.011600
      5 CAE        -11.5440    -1.2930    -0.8860 ca         1 G8S      -0.107000
      6 CAF         -9.7720    -2.8010    -0.2320 ca         1 G8S      -0.107000
      7 CAG          5.8900    -0.7750    -0.1490 ca         1 G8S      -0.120500
      8 CAH          5.9900     0.9460     1.5070 ca         1 G8S      -0.120500
      9 CAI         -1.6640     0.5380    -0.8250 ca         1 G8S      -0.120500
     10 CAJ         -1.3930     2.3810     0.6740 ca         1 G8S      -0.120500
     11 CAK          7.0340    -1.3530     0.3760 ca         1 G8S      -0.100500
     12 CAL          7.1380     0.3710     2.0360 ca         1 G8S      -0.100500
     13 CAM         -2.7950     1.1360    -1.3590 ca         1 G8S      -0.100000
     14 CAN         -2.5250     2.9820     0.1430 ca         1 G8S      -0.100000
     15 CAO        -10.8590    -0.2410    -0.2970 ca         1 G8S      -0.108500
     16 CAP         -9.0980    -1.7450     0.3610 ca         1 G8S      -0.108500
     17 CAQ         11.5900     0.3980     0.1520 cc         1 G8S      -0.332100
     18 CAR         11.6410    -1.9250    -0.4740 cc         1 G8S      -0.332100
     19 CAS         -7.1590     2.2060     1.0180 cc         1 G8S      -0.325100
     20 CAT         -7.4590     0.8240    -0.9270 cc         1 G8S      -0.325100
     21 CAU         10.5660     0.1060     0.9950 cd         1 G8S       0.124000
     22 CAV         10.6130    -2.1380     0.3930 cd         1 G8S       0.124000
     23 CAW         -6.0870     2.7730     0.3990 cd         1 G8S       0.119500
     24 CAX         -6.3790     1.4400    -1.4810 cd         1 G8S       0.119500
     25 CAY          2.8420     0.4360     0.5590 c3         1 G8S      -0.073400
     26 CAZ          1.5590     1.0630     0.0330 c3         1 G8S      -0.074400
     27 CBA          4.0870     0.9880    -0.1390 c3         1 G8S      -0.040100
     28 CBC          8.9350    -1.3860     2.0210 c3         1 G8S       0.253100
     29 CBD         -4.4860     2.9950    -1.4280 c3         1 G8S       0.252100
     30 CBE        -10.9910    -2.5640    -0.8490 ca         1 G8S       0.047400
     31 CBF          5.3510     0.3860     0.4050 ca         1 G8S      -0.041300
     32 CBG         -0.9460     1.1490     0.2000 ca         1 G8S      -0.041300
     33 CBH          7.6730    -0.7820     1.4740 ca         1 G8S      -0.159300
     34 CBI         -3.2390     2.3640    -0.8770 ca         1 G8S      -0.157300
     35 CBJ         12.1870    -0.6250    -0.6330 cc         1 G8S       0.434900
     36 CBK         -9.6390    -0.4670     0.3250 ca         1 G8S      -0.070200
     37 CBL         -7.8960     1.1860     0.3700 cc         1 G8S       0.443900
     38 NBM         13.1950    -0.3770    -1.4630 nh         1 G8S      -0.213100
     39 NBN         -8.9560     0.6120     0.9520 nh         1 G8S      -0.155200
     40 NBO         10.0780    -1.1440     1.1260 na         1 G8S      -0.426200
     41 NBP         -5.6960     2.4020    -0.8340 na         1 G8S      -0.422200
     42 HAA         14.5450     0.9650    -2.2990 h1         1 G8S       0.071200
     43 HAAA        12.9510     1.6510    -1.9980 h1         1 G8S       0.071200
     44 HAAB        14.0710     1.3650    -0.6530 h1         1 G8S       0.071200
     45 HAB         14.1710    -2.2420    -1.6210 h1         1 G8S       0.071200
     46 HABA        13.0370    -1.8830    -2.9360 h1         1 G8S       0.071200
     47 HABB        14.5880    -1.0530    -2.8500 h1         1 G8S       0.071200
     48 HAC         -8.6780     0.8510     3.0320 h1         1 G8S       0.071367
     49 HACA        -9.6680     2.1090     2.2600 h1         1 G8S       0.071367
     50 HACB       -10.3230     0.4910     2.5110 h1         1 G8S       0.071367
     51 HAE        -12.4940    -1.1180    -1.3720 ha         1 G8S       0.170000
     52 HAF         -9.3520    -3.7970    -0.2040 ha         1 G8S       0.170000
     53 HAG          5.4050    -1.2330    -1.0030 ha         1 G8S       0.146500
     54 HAH          5.5910     1.8470     1.9600 ha         1 G8S       0.146500
     55 HAI         -1.3340    -0.4180    -1.2150 ha         1 G8S       0.146500
     56 HAJ         -0.8460     2.8790     1.4660 ha         1 G8S       0.146500
     57 HAK          7.4300    -2.2560    -0.0760 ha         1 G8S       0.133500
     58 HAL          7.6190     0.8270     2.8930 ha         1 G8S       0.133500
     59 HAM         -3.3330     0.6400    -2.1590 ha         1 G8S       0.132500
     60 HAN         -2.8460     3.9440     0.5260 ha         1 G8S       0.132500
     61 HAO        -11.2780     0.7560    -0.3290 ha         1 G8S       0.150500
     62 HAP         -8.1490    -1.9220     0.8500 ha         1 G8S       0.150500
     63 HAQ         11.9260     1.4220     0.1080 ha         1 G8S       0.181500
     64 HAR         12.0150    -2.7730    -1.0260 ha         1 G8S       0.181500
     65 HAS         -7.4120     2.5590     2.0060 ha         1 G8S       0.186000
     66 HAT         -7.9660     0.0720    -1.5110 ha         1 G8S       0.186000
     67 HAU         10.1010     0.8720     1.5990 h4         1 G8S       0.189000
     68 HAV         10.1900    -3.1220     0.5280 h4         1 G8S       0.189000
     69 HAW         -5.5080     3.5480     0.8790 h4         1 G8S       0.187500
     70 HAX         -6.0380     1.1870    -2.4730 h4         1 G8S       0.187500
     71 HAY          2.9240     0.6130     1.6360 hc         1 G8S       0.046700
     72 HAYA         2.8040    -0.6500     0.4270 hc         1 G8S       0.046700
     73 HAZ          1.6060     2.1500     0.1570 hc         1 G8S       0.047200
     74 HAZA         1.4730     0.8800    -1.0430 hc         1 G8S       0.047200
     75 HBA          4.0150     0.7940    -1.2120 hc         1 G8S       0.057200
     76 HBAA         4.1140     2.0740    -0.0170 hc         1 G8S       0.057200
     77 HBB          0.2680    -0.5570     0.6200 hc         1 G8S       0.057200
     78 HBBA         0.3940     0.7250     1.8110 hc         1 G8S       0.057200
     79 HBC          9.1810    -0.9690     2.9970 h1         1 G8S       0.088700
     80 HBCA         8.8450    -2.4640     2.1410 h1         1 G8S       0.088700
     81 HBD         -4.5110     4.0650    -1.2270 h1         1 G8S       0.088700
     82 HBDA        -4.5600     2.8650    -2.5060 h1         1 G8S       0.088700
     83 CBB          0.3120     0.5280     0.7390 c3         1 G8S      -0.040100
@<TRIPOS>BOND
     1     1    30 1   
     2     2    38 1   
     3     2    42 1   
     4     2    43 1   
     5     2    44 1   
     6     3    38 1   
     7     3    45 1   
     8     3    46 1   
     9     3    47 1   
    10     4    39 1   
    11     4    48 1   
    12     4    49 1   
    13     4    50 1   
    14     5    15 ar  
    15     5    30 ar  
    16     5    51 1   
    17     6    16 ar  
    18     6    30 ar  
    19     6    52 1   
    20     7    11 ar  
    21     7    31 ar  
    22     7    53 1   
    23     8    12 ar  
    24     8    31 ar  
    25     8    54 1   
    26     9    13 ar  
    27     9    32 ar  
    28     9    55 1   
    29    10    14 ar  
    30    10    32 ar  
    31    10    56 1   
    32    11    33 ar  
    33    11    57 1   
    34    12    33 ar  
    35    12    58 1   
    36    13    34 ar  
    37    13    59 1   
    38    14    34 ar  
    39    14    60 1   
    40    15    36 ar  
    41    15    61 1   
    42    16    36 ar  
    43    16    62 1   
    44    17    21 2   
    45    17    35 1   
    46    17    63 1   
    47    18    22 2   
    48    18    35 1   
    49    18    64 1   
    50    19    23 2   
    51    19    37 1   
    52    19    65 1   
    53    20    24 2   
    54    20    37 1   
    55    20    66 1   
    56    21    40 1   
    57    21    67 1   
    58    22    40 1   
    59    22    68 1   
    60    23    41 1   
    61    23    69 1   
    62    24    41 1   
    63    24    70 1   
    64    25    26 1   
    65    25    27 1   
    66    25    71 1   
    67    25    72 1   
    68    26    73 1   
    69    26    74 1   
    70    26    83 1   
    71    27    31 1   
    72    27    75 1   
    73    27    76 1   
    74    28    33 1   
    75    28    40 1   
    76    28    79 1   
    77    28    80 1   
    78    29    34 1   
    79    29    41 1   
    80    29    81 1   
    81    29    82 1   
    82    32    83 1   
    83    35    38 2   
    84    36    39 1   
    85    37    39 2   
    86    77    83 1   
    87    78    83 1   
@<TRIPOS>SUBSTRUCTURE
     1 G8S         1 TEMP              0 ****  ****    0 ROOT
