@<TRIPOS>MOLECULE
G8T
   41    42     1     0     0
SMALL
No Charge or Current Charge


@<TRIPOS>ATOM
      1 C20         -0.2520    -2.2280     1.0480 ca         1 G8T      -0.106250
      2 C10         -1.8720     2.3490    -0.3960 ca         1 G8T      -0.106250
      3 C12         -4.2680     2.5950    -0.0280 ca         1 G8T      -0.109000
      4 C11         -3.0690     3.0630    -0.5840 ca         1 G8T      -0.113500
      5 C13         -4.2690     1.4110     0.7240 ca         1 G8T      -0.113500
      6 C14         -3.0740     0.6970     0.9150 ca         1 G8T      -0.106250
      7 C19         -0.4930    -3.5740     0.7240 ca         1 G8T      -0.113500
      8 C18         -1.3100    -3.9030    -0.3670 ca         1 G8T      -0.109000
      9 C17         -1.8830    -2.8820    -1.1380 ca         1 G8T      -0.113500
     10 C16         -1.6430    -1.5350    -0.8180 ca         1 G8T      -0.106250
     11 C15         -0.8280    -1.1810     0.2870 ca         1 G8T      -0.079800
     12 C02         -0.5590     0.3210     0.6090 c3         1 G8T       0.028600
     13 C03          0.6750     0.8110    -0.2490 c3         1 G8T       0.408500
     14 C07          4.3530    -0.2800    -0.0990 c3         1 G8T       0.078600
     15 C09         -1.8550     1.1440     0.3510 ca         1 G8T      -0.079800
     16 N05          1.8870     0.0510     0.0380 n7         1 G8T      -0.918400
     17 O04          0.4470     0.6030    -1.6280 oh         1 G8T      -0.681000
     18 S08          5.9750     0.2830    -0.8070 sh         1 G8T      -0.455800
     19 H1           0.3980    -2.0160     1.8930 ha         1 G8T       0.120250
     20 H2          -0.9680     2.7550    -0.8400 ha         1 G8T       0.120250
     21 H3          -5.1920     3.1490    -0.1750 ha         1 G8T       0.113000
     22 H4          -3.0640     3.9840    -1.1630 ha         1 G8T       0.112750
     23 H5          -5.1950     1.0470     1.1620 ha         1 G8T       0.112750
     24 H6          -3.0990    -0.2170     1.5040 ha         1 G8T       0.120250
     25 H7          -0.0420    -4.3640     1.3210 ha         1 G8T       0.112750
     26 H8          -1.4960    -4.9450    -0.6160 ha         1 G8T       0.113000
     27 H9          -2.5160    -3.1330    -1.9870 ha         1 G8T       0.112750
     28 H10         -2.1050    -0.7670    -1.4340 ha         1 G8T       0.120250
     29 H11          0.7240     0.1150     2.4160 hc         1 G8T       0.044367
     30 H12         -0.1840     1.6220     2.3400 hc         1 G8T       0.044367
     31 H13         -1.0120     0.1140     2.7610 hc         1 G8T       0.044367
     32 H14          0.8470     1.8800    -0.0590 h2         1 G8T       0.087700
     33 H15          3.3090     1.6000    -0.2980 h1         1 G8T       0.050700
     34 H16          3.0910     0.5000    -1.6710 h1         1 G8T       0.050700
     35 H17          4.4180    -0.2260     0.9950 h1         1 G8T       0.063200
     36 H18          4.2030    -1.3310    -0.3780 h1         1 G8T       0.063200
     37 H19          1.7210    -0.9100    -0.2710 hn         1 G8T       0.423000
     38 H21         -0.0480    -0.2380    -1.6730 ho         1 G8T       0.445000
     39 H22          6.7400    -0.6440    -0.1780 hs         1 G8T       0.213800
     40 C06          3.1410     0.5500    -0.5740 c3         1 G8T       0.184800
     41 C01         -0.2360     0.5490     2.1200 c3         1 G8T      -0.076100
@<TRIPOS>BOND
     1     1     7 ar  
     2     1    11 ar  
     3     1    19 1   
     4     2     4 ar  
     5     2    15 ar  
     6     2    20 1   
     7     3     4 ar  
     8     3     5 ar  
     9     3    21 1   
    10     4    22 1   
    11     5     6 ar  
    12     5    23 1   
    13     6    15 ar  
    14     6    24 1   
    15     7     8 ar  
    16     7    25 1   
    17     8     9 ar  
    18     8    26 1   
    19     9    10 ar  
    20     9    27 1   
    21    10    11 ar  
    22    10    28 1   
    23    11    12 1   
    24    12    13 1   
    25    12    15 1   
    26    12    41 1   
    27    13    16 1   
    28    13    17 1   
    29    13    32 1   
    30    14    18 1   
    31    14    35 1   
    32    14    36 1   
    33    14    40 1   
    34    16    37 1   
    35    16    40 1   
    36    17    38 1   
    37    18    39 1   
    38    29    41 1   
    39    30    41 1   
    40    31    41 1   
    41    33    40 1   
    42    34    40 1   
@<TRIPOS>SUBSTRUCTURE
     1 G8T         1 TEMP              0 ****  ****    0 ROOT
