@<TRIPOS>MOLECULE
G8T
   41    42     1     0     0
SMALL
bcc


@<TRIPOS>ATOM
      1 C20         -0.3330    -2.2190     1.0750 ca         1 G8T      -0.124250
      2 C10         -1.8210     2.3320    -0.3560 ca         1 G8T      -0.124250
      3 C12         -4.1700     2.6390     0.0980 ca         1 G8T      -0.127000
      4 C11         -2.9840     3.0880    -0.4610 ca         1 G8T      -0.131500
      5 C13         -4.1810     1.4260     0.7740 ca         1 G8T      -0.131500
      6 C14         -3.0200     0.6770     0.8760 ca         1 G8T      -0.124250
      7 C19         -0.5490    -3.5570     0.7660 ca         1 G8T      -0.131500
      8 C18         -1.2810    -3.9080    -0.3580 ca         1 G8T      -0.127000
      9 C17         -1.8060    -2.9070    -1.1640 ca         1 G8T      -0.131500
     10 C16         -1.5960    -1.5720    -0.8500 ca         1 G8T      -0.124250
     11 C15         -0.8500    -1.2010     0.2740 ca         1 G8T      -0.079800
     12 C02         -0.5610     0.2710     0.5520 c3         1 G8T       0.028600
     13 C03          0.6290     0.7160    -0.3510 c3         1 G8T       0.385300
     14 C07          4.2240    -0.2220     0.0330 c3         1 G8T       0.030700
     15 C09         -1.8180     1.1090     0.3090 ca         1 G8T      -0.079800
     16 N05          1.8090    -0.0220    -0.0200 n7         1 G8T      -0.863200
     17 O04          0.3050     0.7050    -1.7250 oh         1 G8T      -0.618800
     18 S08          5.7590     0.4310    -0.7040 sh         1 G8T      -0.407900
     19 H1           0.2400    -1.9780     1.9600 ha         1 G8T       0.138250
     20 H2          -0.9210     2.7250    -0.8070 ha         1 G8T       0.138250
     21 H3          -5.0750     3.2280     0.0100 ha         1 G8T       0.131000
     22 H4          -2.9570     4.0330    -0.9890 ha         1 G8T       0.130750
     23 H5          -5.0960     1.0600     1.2230 ha         1 G8T       0.130750
     24 H6          -3.0490    -0.2660     1.4110 ha         1 G8T       0.138250
     25 H7          -0.1410    -4.3250     1.4100 ha         1 G8T       0.130750
     26 H8          -1.4480    -4.9490    -0.6010 ha         1 G8T       0.131000
     27 H9          -2.3880    -3.1630    -2.0410 ha         1 G8T       0.130750
     28 H10         -2.0490    -0.8120    -1.4750 ha         1 G8T       0.138250
     29 H11          0.7740     0.0390     2.2750 hc         1 G8T       0.044367
     30 H12         -0.0190     1.6010     2.1660 hc         1 G8T       0.044367
     31 H13         -0.9390     0.1960     2.6980 hc         1 G8T       0.044367
     32 H14          0.8390     1.7660    -0.1220 h2         1 G8T       0.087700
     33 H15          3.0970     1.5410    -0.4500 h1         1 G8T       0.050700
     34 H16          3.0800     0.3130    -1.7080 h1         1 G8T       0.050700
     35 H17          4.2170    -0.0380     1.1070 h1         1 G8T       0.063200
     36 H18          4.1790    -1.2990    -0.1340 h1         1 G8T       0.063200
     37 H19          1.6930    -1.0130    -0.2020 hn         1 G8T       0.367800
     38 H21          0.1190    -0.2020    -1.9950 ho         1 G8T       0.406000
     39 H22          6.6100    -0.4180    -0.1190 hs         1 G8T       0.213800
     40 C06          3.0350     0.4630    -0.6220 c3         1 G8T       0.184800
     41 C01         -0.1600     0.5300     2.0130 c3         1 G8T      -0.076100
@<TRIPOS>BOND
     1     1     7 ar  
     2     1    11 ar  
     3     1    19 1   
     4     2     4 ar  
     5     2    15 ar  
     6     2    20 1   
     7     3     4 ar  
     8     3     5 ar  
     9     3    21 1   
    10     4    22 1   
    11     5     6 ar  
    12     5    23 1   
    13     6    15 ar  
    14     6    24 1   
    15     7     8 ar  
    16     7    25 1   
    17     8     9 ar  
    18     8    26 1   
    19     9    10 ar  
    20     9    27 1   
    21    10    11 ar  
    22    10    28 1   
    23    11    12 1   
    24    12    13 1   
    25    12    15 1   
    26    12    41 1   
    27    13    16 1   
    28    13    17 1   
    29    13    32 1   
    30    14    18 1   
    31    14    35 1   
    32    14    36 1   
    33    14    40 1   
    34    16    37 1   
    35    16    40 1   
    36    17    38 1   
    37    18    39 1   
    38    29    41 1   
    39    30    41 1   
    40    31    41 1   
    41    33    40 1   
    42    34    40 1   
@<TRIPOS>SUBSTRUCTURE
     1 G8T         1 TEMP              0 ****  ****    0 ROOT
