@<TRIPOS>MOLECULE
G8U
   44    46     1     0     0
SMALL
abcg2


@<TRIPOS>ATOM
      1 C1          -7.1960    -0.7890    -0.6420 c3         1 G8U       0.516000
      2 F1          -6.6490    -1.7800    -1.3470 f          1 G8U      -0.108667
      3 F2          -7.3150     0.2520    -1.4670 f          1 G8U      -0.108667
      4 F3          -8.4080    -1.1650    -0.2670 f          1 G8U      -0.108667
      5 C4          -5.2010    -0.0280     0.3130 ca         1 G8U       0.124100
      6 C5          -4.1660    -0.9420     0.3030 ca         1 G8U      -0.136000
      7 C6          -2.8590    -0.4700     0.2100 ca         1 G8U       0.150100
      8 C7          -2.6070     0.8950     0.1240 ca         1 G8U      -0.177000
      9 C8          -3.6750     1.7830     0.1430 ca         1 G8U      -0.069000
     10 C9          -4.9840     1.3380     0.2370 ca         1 G8U      -0.135000
     11 O10         -1.8890    -1.4200     0.2080 os         1 G8U      -0.248200
     12 C11         -0.5760    -1.0280     0.1070 ca         1 G8U       0.092100
     13 C12          0.1490    -0.7520     1.2550 ca         1 G8U      -0.120500
     14 C13          1.4820    -0.3850     1.1450 ca         1 G8U      -0.079000
     15 C14          2.0940    -0.2910    -0.1020 cp         1 G8U      -0.023000
     16 C15          1.3480    -0.5840    -1.2420 ca         1 G8U      -0.079000
     17 C16          0.0140    -0.9450    -1.1450 ca         1 G8U      -0.120500
     18 C17          3.5130     0.1130    -0.2200 cp         1 G8U      -0.117000
     19 C18          4.4750    -0.8320    -0.5920 ca         1 G8U       0.203100
     20 C19          5.8010    -0.4170    -0.6830 ca         1 G8U      -0.050000
     21 C20          6.1480     0.9030    -0.4150 ca         1 G8U       0.420300
     22 C22          3.9460     1.4110     0.0260 ca         1 G8U       0.403300
     23 O23          4.0790    -2.0770    -0.8300 oh         1 G8U      -0.509100
     24 C24          2.9850     2.4860     0.4530 c3         1 G8U       0.110300
     25 O25          2.9450     2.4870     1.8650 oh         1 G8U      -0.650000
     26 CL           7.0040    -1.5760    -1.1340 cl         1 G8U      -0.190000
     27 C27          7.5650     1.3720    -0.5080 c3         1 G8U      -0.150400
     28 N28          5.2210     1.7850    -0.0690 nb         1 G8U      -0.687000
     29 O29         -6.5010    -0.4970     0.4650 os         1 G8U      -0.404100
     30 H5          -4.3560    -2.0050     0.3860 ha         1 G8U       0.151000
     31 H9          -5.8080     2.0370     0.2660 ha         1 G8U       0.137000
     32 H7          -1.5980     1.2770     0.0500 ha         1 G8U       0.130000
     33 H8          -3.4770     2.8450     0.0850 ha         1 G8U       0.120000
     34 H12         -0.3210    -0.8260     2.2280 ha         1 G8U       0.131500
     35 H16         -0.5620    -1.1630    -2.0360 ha         1 G8U       0.131500
     36 H13          2.0480    -0.1690     2.0410 ha         1 G8U       0.128000
     37 H15          1.8080    -0.5120    -2.2200 ha         1 G8U       0.128000
     38 H23          4.8210    -2.6420    -1.0850 ho         1 G8U       0.485000
     39 H271         7.9770     1.2020    -1.5040 hc         1 G8U       0.061033
     40 H272         7.6170     2.4360    -0.2890 hc         1 G8U       0.061033
     41 H273         8.2070     0.8430     0.1990 hc         1 G8U       0.061033
     42 H241         3.3430     3.4430     0.0590 h1         1 G8U       0.039700
     43 H242         1.9960     2.3020     0.0200 h1         1 G8U       0.039700
     44 H25          2.2740     3.1200     2.1390 ho         1 G8U       0.446000
@<TRIPOS>BOND
     1     1     2 1   
     2     1     3 1   
     3     1     4 1   
     4     1    29 1   
     5     5     6 ar  
     6     5    10 ar  
     7     5    29 1   
     8     6     7 ar  
     9     6    30 1   
    10     7     8 ar  
    11     7    11 1   
    12     8     9 ar  
    13     8    32 1   
    14     9    10 ar  
    15     9    33 1   
    16    10    31 1   
    17    11    12 1   
    18    12    13 ar  
    19    12    17 ar  
    20    13    14 ar  
    21    13    34 1   
    22    14    15 ar  
    23    14    36 1   
    24    15    16 ar  
    25    15    18 1   
    26    16    17 ar  
    27    16    37 1   
    28    17    35 1   
    29    18    19 ar  
    30    18    22 ar  
    31    19    20 ar  
    32    19    23 1   
    33    20    21 ar  
    34    20    26 1   
    35    21    27 1   
    36    21    28 ar  
    37    22    24 1   
    38    22    28 ar  
    39    23    38 1   
    40    24    25 1   
    41    24    42 1   
    42    24    43 1   
    43    25    44 1   
    44    27    39 1   
    45    27    40 1   
    46    27    41 1   
@<TRIPOS>SUBSTRUCTURE
     1 G8U         1 TEMP              0 ****  ****    0 ROOT
