@<TRIPOS>MOLECULE
G8U
   44    46     1     0     0
SMALL
No Charge or Current Charge


@<TRIPOS>ATOM
      1 C1          -6.8170    -1.8250     0.5100 c3         1 G8U       0.516000
      2 F1          -5.9540    -2.6790     1.1080 f          1 G8U      -0.108667
      3 F2          -6.8340    -2.1080    -0.8130 f          1 G8U      -0.108667
      4 F3          -8.0470    -2.1110     0.9890 f          1 G8U      -0.108667
      5 C4          -5.2840     0.1410     0.3940 ca         1 G8U       0.124100
      6 C5          -4.2540    -0.5480    -0.2840 ca         1 G8U      -0.136000
      7 C6          -3.0640     0.1180    -0.6200 ca         1 G8U       0.150100
      8 C7          -2.9020     1.4800    -0.3020 ca         1 G8U      -0.177000
      9 C8          -3.9230     2.1690     0.3710 ca         1 G8U      -0.069000
     10 C9          -5.1080     1.4970     0.7180 ca         1 G8U      -0.135000
     11 O10         -2.0820    -0.5750    -1.2910 os         1 G8U      -0.248200
     12 C11         -0.7390    -0.3990    -1.0430 ca         1 G8U       0.092100
     13 C12         -0.2600    -0.2020     0.2670 ca         1 G8U      -0.120500
     14 C13          1.1180    -0.0380     0.4920 ca         1 G8U      -0.079000
     15 C14          2.0400    -0.0740    -0.5810 cp         1 G8U      -0.023000
     16 C15          1.5410    -0.2930    -1.8870 ca         1 G8U      -0.079000
     17 C16          0.1630    -0.4570    -2.1160 ca         1 G8U      -0.120500
     18 C17          3.5060     0.1040    -0.3440 cp         1 G8U      -0.117000
     19 C18          4.4220    -0.9330    -0.6430 ca         1 G8U       0.203100
     20 C19          5.7940    -0.7390    -0.4140 ca         1 G8U      -0.050000
     21 C20          6.2210     0.4990     0.1070 ca         1 G8U       0.420300
     22 C22          4.0390     1.3160     0.1790 ca         1 G8U       0.403300
     23 O23          3.9870    -2.1320    -1.1400 oh         1 G8U      -0.509100
     24 C24          3.1530     2.5350     0.5090 c3         1 G8U       0.110300
     25 O25          2.7460     2.5790     1.8950 oh         1 G8U      -0.650000
     26 Cl           6.9520    -2.0320    -0.7780 cl         1 G8U      -0.190000
     27 C27          7.6870     0.7880     0.3800 c3         1 G8U      -0.150400
     28 N28          5.3660     1.5040     0.3930 nb         1 G8U      -0.687000
     29 O29         -6.4800    -0.4460     0.7650 os         1 G8U      -0.404100
     30 H5          -4.3470    -1.5940    -0.5560 ha         1 G8U       0.151000
     31 H9          -5.8980     2.0320     1.2390 ha         1 G8U       0.137000
     32 H7          -1.9910     2.0040    -0.5800 ha         1 G8U       0.130000
     33 H8          -3.8000     3.2210     0.6200 ha         1 G8U       0.120000
     34 H12         -0.9490    -0.1800     1.1070 ha         1 G8U       0.131500
     35 H16         -0.2050    -0.6240    -3.1250 ha         1 G8U       0.131500
     36 H13          1.4780     0.1100     1.5080 ha         1 G8U       0.128000
     37 H15          2.2310    -0.3330    -2.7270 ha         1 G8U       0.128000
     38 H23          4.7730    -2.7070    -1.2650 ho         1 G8U       0.485000
     39 H271         8.2760     0.7070    -0.5410 hc         1 G8U       0.061033
     40 H272         7.8390     1.7960     0.7830 hc         1 G8U       0.061033
     41 H273         8.0940     0.0760     1.1070 hc         1 G8U       0.061033
     42 H241         3.7110     3.4470     0.2570 h1         1 G8U       0.039700
     43 H242         2.2710     2.5250    -0.1440 h1         1 G8U       0.039700
     44 H25          2.2430     3.4150     2.0250 ho         1 G8U       0.446000
@<TRIPOS>BOND
     1     1     2 1   
     2     1     3 1   
     3     1     4 1   
     4     1    29 1   
     5     5     6 ar  
     6     5    10 ar  
     7     5    29 1   
     8     6     7 ar  
     9     6    30 1   
    10     7     8 ar  
    11     7    11 1   
    12     8     9 ar  
    13     8    32 1   
    14     9    10 ar  
    15     9    33 1   
    16    10    31 1   
    17    11    12 1   
    18    12    13 ar  
    19    12    17 ar  
    20    13    14 ar  
    21    13    34 1   
    22    14    15 ar  
    23    14    36 1   
    24    15    16 ar  
    25    15    18 1   
    26    16    17 ar  
    27    16    37 1   
    28    17    35 1   
    29    18    19 ar  
    30    18    22 ar  
    31    19    20 ar  
    32    19    23 1   
    33    20    21 ar  
    34    20    26 1   
    35    21    27 1   
    36    21    28 ar  
    37    22    24 1   
    38    22    28 ar  
    39    23    38 1   
    40    24    25 1   
    41    24    42 1   
    42    24    43 1   
    43    25    44 1   
    44    27    39 1   
    45    27    40 1   
    46    27    41 1   
@<TRIPOS>SUBSTRUCTURE
     1 G8U         1 TEMP              0 ****  ****    0 ROOT
