@<TRIPOS>MOLECULE
G8V
   33    34     1     0     0
SMALL
No Charge or Current Charge


@<TRIPOS>ATOM
      1 CAA          4.8930     1.1580    -0.0770 c3         1 G8V       0.035400
      2 CAB          4.2930    -0.7360    -1.6060 c3         1 G8V       0.035400
      3 CAG         -4.5840    -1.1420    -0.1330 ca         1 G8V      -0.099000
      4 CAH         -3.4230     0.3590    -1.6530 ca         1 G8V      -0.099000
      5 CAK         -3.5790    -0.9450     0.8300 ca         1 G8V      -0.087500
      6 CAL         -2.4180     0.5570    -0.6910 ca         1 G8V      -0.087500
      7 CAQ          2.0310     1.3090     0.6370 cc         1 G8V      -0.383600
      8 CAR          1.7610    -0.9670    -0.1020 cc         1 G8V      -0.383600
      9 CAU          0.7590     1.3160     1.1680 cd         1 G8V       0.075000
     10 CAV          0.4840    -1.0100     0.4130 cd         1 G8V       0.075000
     11 CBC         -1.4000     0.1120     1.6160 c3         1 G8V       0.251100
     12 CBF         -4.5060    -0.4910    -1.3760 ca         1 G8V      -0.071000
     13 CBH         -2.4860    -0.0980     0.5580 ca         1 G8V      -0.158300
     14 CBJ          2.5810     0.1810    -0.0140 cc         1 G8V       0.434900
     15 NBM          3.8690     0.2000    -0.5430 nh         1 G8V      -0.275700
     16 NBO         -0.0260     0.1420     1.0590 na         1 G8V      -0.421200
     17 HAA          4.7570     2.1300    -0.5690 h1         1 G8V       0.069867
     18 HAAA         4.8240     1.2980     1.0090 h1         1 G8V       0.069867
     19 HAAB         5.9040     0.7940    -0.3030 h1         1 G8V       0.069867
     20 HAB          4.5650    -1.7070    -1.1710 h1         1 G8V       0.069867
     21 HABA         3.4830    -0.8880    -2.3310 h1         1 G8V       0.069867
     22 HABB         5.1610    -0.3450    -2.1510 h1         1 G8V       0.069867
     23 HAH         -3.3630     0.8660    -2.6140 ha         1 G8V       0.133000
     24 HAK         -3.6530    -1.4540     1.7890 ha         1 G8V       0.112000
     25 HAL         -1.5860     1.2210    -0.9190 ha         1 G8V       0.112000
     26 HAQ          2.6260     2.2110     0.7090 ha         1 G8V       0.231000
     27 HAR          2.1540    -1.8540    -0.5840 ha         1 G8V       0.231000
     28 HAU          0.3210     2.1810     1.6660 h4         1 G8V       0.239000
     29 HAV         -0.1640    -1.8850     0.3540 h4         1 G8V       0.239000
     30 HBC         -1.6060     1.0500     2.1480 h1         1 G8V       0.088200
     31 HBCA        -1.4530    -0.6930     2.3610 h1         1 G8V       0.088200
     32 HBF         -5.2850    -0.6440    -2.1210 ha         1 G8V       0.134000
     33 HAG         -5.4240    -1.7990     0.0840 ha         1 G8V       0.133000
@<TRIPOS>BOND
     1     1    15 1   
     2     1    17 1   
     3     1    18 1   
     4     1    19 1   
     5     2    15 1   
     6     2    20 1   
     7     2    21 1   
     8     2    22 1   
     9     3     5 ar  
    10     3    12 ar  
    11     3    33 1   
    12     4     6 ar  
    13     4    12 ar  
    14     4    23 1   
    15     5    13 ar  
    16     5    24 1   
    17     6    13 ar  
    18     6    25 1   
    19     7     9 2   
    20     7    14 1   
    21     7    26 1   
    22     8    10 2   
    23     8    14 1   
    24     8    27 1   
    25     9    16 1   
    26     9    28 1   
    27    10    16 1   
    28    10    29 1   
    29    11    13 1   
    30    11    16 1   
    31    11    30 1   
    32    11    31 1   
    33    12    32 1   
    34    14    15 2   
@<TRIPOS>SUBSTRUCTURE
     1 G8V         1 TEMP              0 ****  ****    0 ROOT
