@<TRIPOS>MOLECULE
G8V
   33    34     1     0     0
SMALL
bcc


@<TRIPOS>ATOM
      1 CAA          4.5040     1.2930    -0.6680 c3         1 G8V       0.006100
      2 CAB          4.3060    -1.1760    -1.0600 c3         1 G8V       0.006100
      3 CAG         -3.9610    -1.3160    -0.7070 ca         1 G8V      -0.117000
      4 CAH         -3.6200     1.0050    -1.2350 ca         1 G8V      -0.117000
      5 CAK         -3.0420    -1.2120     0.3300 ca         1 G8V      -0.105500
      6 CAL         -2.7050     1.1070    -0.1980 ca         1 G8V      -0.105500
      7 CAQ          1.9240     1.2680     0.4650 cc         1 G8V      -0.333600
      8 CAR          1.7560    -1.1100     0.1370 cc         1 G8V      -0.333600
      9 CAU          0.6820     1.2360     1.0200 cd         1 G8V       0.125000
     10 CAV          0.5220    -1.0590     0.7030 cd         1 G8V       0.125000
     11 CBC         -1.3850     0.0990     1.6870 c3         1 G8V       0.251100
     12 CBF         -4.2480    -0.2080    -1.4920 ca         1 G8V      -0.089000
     13 CBH         -2.4070    -0.0030     0.5890 ca         1 G8V      -0.158300
     14 CBJ          2.5260     0.0750    -0.0140 cc         1 G8V       0.434900
     15 NBM          3.7350     0.0650    -0.5660 nh         1 G8V      -0.217100
     16 NBO         -0.0170     0.0940     1.1460 na         1 G8V      -0.421200
     17 HAA          4.0000     2.0310    -1.2940 h1         1 G8V       0.069867
     18 HAAA         4.6840     1.7310     0.3150 h1         1 G8V       0.069867
     19 HAAB         5.4670     1.0730    -1.1170 h1         1 G8V       0.069867
     20 HAB          4.4830    -1.8870    -0.2500 h1         1 G8V       0.069867
     21 HABA         3.6570    -1.6430    -1.8000 h1         1 G8V       0.069867
     22 HABB         5.2570    -0.9650    -1.5360 h1         1 G8V       0.069867
     23 HAH         -3.8470     1.8730    -1.8400 ha         1 G8V       0.151000
     24 HAK         -2.8240    -2.0790     0.9430 ha         1 G8V       0.130000
     25 HAL         -2.2270     2.0590     0.0010 ha         1 G8V       0.130000
     26 HAQ          2.4210     2.2230     0.4030 ha         1 G8V       0.181000
     27 HAR          2.1220    -2.0740    -0.1810 ha         1 G8V       0.181000
     28 HAU          0.2110     2.1360     1.3860 h4         1 G8V       0.189000
     29 HAV         -0.0740    -1.9520     0.8260 h4         1 G8V       0.189000
     30 HBC         -1.5010     1.0180     2.2600 h1         1 G8V       0.088200
     31 HBCA        -1.4720    -0.7310     2.3860 h1         1 G8V       0.088200
     32 HBF         -4.9640    -0.2860    -2.3000 ha         1 G8V       0.152000
     33 HAG         -4.4530    -2.2610    -0.8980 ha         1 G8V       0.151000
@<TRIPOS>BOND
     1     1    15 1   
     2     1    17 1   
     3     1    18 1   
     4     1    19 1   
     5     2    15 1   
     6     2    20 1   
     7     2    21 1   
     8     2    22 1   
     9     3     5 ar  
    10     3    12 ar  
    11     3    33 1   
    12     4     6 ar  
    13     4    12 ar  
    14     4    23 1   
    15     5    13 ar  
    16     5    24 1   
    17     6    13 ar  
    18     6    25 1   
    19     7     9 2   
    20     7    14 1   
    21     7    26 1   
    22     8    10 2   
    23     8    14 1   
    24     8    27 1   
    25     9    16 1   
    26     9    28 1   
    27    10    16 1   
    28    10    29 1   
    29    11    13 1   
    30    11    16 1   
    31    11    30 1   
    32    11    31 1   
    33    12    32 1   
    34    14    15 2   
@<TRIPOS>SUBSTRUCTURE
     1 G8V         1 TEMP              0 ****  ****    0 ROOT
