@<TRIPOS>MOLECULE
G8W
   48    48     1     0     0
SMALL
bcc


@<TRIPOS>ATOM
      1 OBA         14.1570    49.2960    40.4870 o          1 G8W      -0.881300
      2 CAZ         14.0610    48.0510    40.5230 c          1 G8W       0.924600
      3 OBB         13.0390    47.3790    40.2800 o          1 G8W      -0.881300
      4 CAY         15.3570    47.2910    40.8830 c3         1 G8W      -0.201400
      5 CAX         15.1910    45.8060    41.1790 c3         1 G8W      -0.039400
      6 CAT         16.4870    45.0550    41.5030 c3         1 G8W      -0.037300
      7 CAU         17.4830    45.1440    40.3160 c          1 G8W       0.928600
      8 OAW         17.1540    44.5000    39.2980 o          1 G8W      -0.860800
      9 OAV         18.4950    45.8560    40.4600 o          1 G8W      -0.860800
     10 NAS         17.0320    45.5350    42.7560 ns         1 G8W      -0.532900
     11 CAA         18.1500    44.9380    43.2710 c          1 G8W       0.777100
     12 OBD         18.4890    43.7990    42.9560 o          1 G8W      -0.703100
     13 N           18.8070    45.6610    44.2110 ns         1 G8W      -0.576900
     14 CA          20.1020    45.2870    44.7350 c3         1 G8W      -0.000300
     15 C           20.3520    46.0680    46.0480 c          1 G8W       0.925600
     16 O           19.8980    47.2310    46.0850 o          1 G8W      -0.855300
     17 OXT         21.0070    45.4880    46.9320 o          1 G8W      -0.855300
     18 CB          21.2070    45.5890    43.7090 c3         1 G8W      -0.096400
     19 CAL         22.5970    45.1090    44.1060 c3         1 G8W      -0.055400
     20 CAK         23.6290    45.3440    43.0110 c3         1 G8W      -0.144400
     21 CAB         23.9400    46.8090    42.7860 c          1 G8W       0.677100
     22 OBC         23.9340    47.6280    43.6850 o          1 G8W      -0.557100
     23 NAJ         24.2620    47.1210    41.5000 ns         1 G8W      -0.472100
     24 CAD         24.7180    48.3380    40.9950 ca         1 G8W      -0.021700
     25 CAC         25.2720    48.3450    39.7100 ca         1 G8W      -0.146000
     26 CAE         25.7340    49.5210    39.1580 ca         1 G8W      -0.260300
     27 CAG         25.6190    50.6570    39.9400 ca         1 G8W       0.576500
     28 FAI         26.0580    51.8250    39.4580 f          1 G8W      -0.254200
     29 NAH         25.1040    50.6900    41.1310 nb         1 G8W      -0.689000
     30 CAF         24.6500    49.5580    41.6670 ca         1 G8W       0.415200
     31 H2          16.0540    47.4260    40.0480 hc         1 G8W       0.029700
     32 H3          15.8240    47.8130    41.7240 hc         1 G8W       0.029700
     33 H4          14.4940    45.6730    42.0120 hc         1 G8W       0.025700
     34 H5          14.7320    45.3160    40.3210 hc         1 G8W       0.025700
     35 H6          16.2190    44.0030    41.6360 h1         1 G8W       0.036700
     36 H8          16.9790    46.5340    42.8840 hn         1 G8W       0.283500
     37 H9          18.5500    46.6200    44.3910 hn         1 G8W       0.320500
     38 H10         20.1040    44.2160    44.9510 h1         1 G8W       0.045700
     39 H12         21.2150    46.6680    43.5270 hc         1 G8W       0.051200
     40 H13         20.9290    45.1170    42.7620 hc         1 G8W       0.051200
     41 H14         22.5630    44.0360    44.3160 hc         1 G8W       0.055200
     42 H15         22.9260    45.5880    45.0270 hc         1 G8W       0.055200
     43 H16         23.3080    44.8700    42.0800 hc         1 G8W       0.039700
     44 H17         24.5750    44.8640    43.2840 hc         1 G8W       0.039700
     45 H18         24.2570    46.3580    40.8390 hn         1 G8W       0.320500
     46 H19         25.3410    47.4250    39.1430 ha         1 G8W       0.133000
     47 H20         26.1670    49.5500    38.1680 ha         1 G8W       0.140000
     48 H21         24.2240    49.6350    42.6540 h4         1 G8W       0.073100
@<TRIPOS>BOND
     1     1     2 1   
     2     2     3 1   
     3     2     4 1   
     4     4     5 1   
     5     4    31 1   
     6     4    32 1   
     7     5     6 1   
     8     5    33 1   
     9     5    34 1   
    10     6     7 1   
    11     6    10 1   
    12     6    35 1   
    13     7     8 1   
    14     7     9 1   
    15    10    11 1   
    16    10    36 1   
    17    11    12 2   
    18    11    13 1   
    19    13    14 1   
    20    13    37 1   
    21    14    15 1   
    22    14    18 1   
    23    14    38 1   
    24    15    16 1   
    25    15    17 1   
    26    18    19 1   
    27    18    39 1   
    28    18    40 1   
    29    19    20 1   
    30    19    41 1   
    31    19    42 1   
    32    20    21 1   
    33    20    43 1   
    34    20    44 1   
    35    21    22 2   
    36    21    23 1   
    37    23    24 1   
    38    23    45 1   
    39    24    25 ar  
    40    24    30 ar  
    41    25    26 ar  
    42    25    46 1   
    43    26    27 ar  
    44    26    47 1   
    45    27    28 1   
    46    27    29 ar  
    47    29    30 ar  
    48    30    48 1   
@<TRIPOS>SUBSTRUCTURE
     1 G8W         1 TEMP              0 ****  ****    0 ROOT
