@<TRIPOS>MOLECULE
G8W
   48    48     1     0     0
SMALL
No Charge or Current Charge


@<TRIPOS>ATOM
      1 OBA         13.3900    44.7860    43.1320 o          1 G8W      -0.776000
      2 CAZ         13.3300    45.4300    42.0960 c          1 G8W       0.714000
      3 OBB         12.3730    45.3940    41.3380 o          1 G8W      -0.776000
      4 CAY         14.5420    46.2900    41.6980 c3         1 G8W      -0.201400
      5 CAX         15.5340    45.4540    40.8450 c3         1 G8W      -0.039400
      6 CAT         16.7910    46.2220    40.3480 c3         1 G8W      -0.037300
      7 CAU         16.4310    47.3420    39.3120 c          1 G8W       0.718000
      8 OAW         16.3270    47.0210    38.1360 o          1 G8W      -0.755500
      9 OAV         16.3900    48.5080    39.6850 o          1 G8W      -0.755500
     10 NAS         17.6070    46.7620    41.4650 ns         1 G8W      -0.465900
     11 CAA         18.4180    46.0240    42.2870 c          1 G8W       0.643100
     12 OBD         18.5890    44.8200    42.1750 o          1 G8W      -0.703100
     13 N           19.0230    46.7900    43.2460 ns         1 G8W      -0.509900
     14 CA          19.9820    46.2940    44.2620 c3         1 G8W      -0.000300
     15 C           20.0010    47.2450    45.5080 c          1 G8W       0.715000
     16 O           20.1460    48.4470    45.3250 o          1 G8W      -0.750000
     17 OXT         19.7670    46.7640    46.6090 o          1 G8W      -0.750000
     18 CB          21.3920    46.0910    43.6460 c3         1 G8W      -0.096400
     19 CAL         22.4120    45.4520    44.6210 c3         1 G8W      -0.055400
     20 CAK         23.7880    45.1530    43.9760 c3         1 G8W      -0.144400
     21 CAB         24.5130    46.4280    43.5180 c          1 G8W       0.610100
     22 OBC         25.0240    47.2000    44.3200 o          1 G8W      -0.557100
     23 NAJ         24.5620    46.5990    42.1410 ns         1 G8W      -0.146000
     24 CAD         25.1290    47.6230    41.3310 ca         1 G8W      -0.049000
     25 CAC         25.0270    47.4890    39.9330 ca         1 G8W      -0.128000
     26 CAE         25.5810    48.4930    39.1210 ca         1 G8W      -0.177000
     27 CAG         26.2120    49.5870    39.7320 ca         1 G8W       0.511200
     28 FAI         26.7580    50.5720    38.9880 f          1 G8W      -0.254200
     29 NAH         26.3230    49.7410    41.0650 nb         1 G8W      -0.689000
     30 CAF         25.7870    48.7720    41.8490 ca         1 G8W       0.349900
     31 H2          14.2200    47.1240    41.0640 hc         1 G8W       0.029700
     32 H3          15.0940    46.6020    42.5930 hc         1 G8W       0.029700
     33 H4          15.8570    44.5850    41.4300 hc         1 G8W       0.025700
     34 H5          15.0030    45.0550    39.9720 hc         1 G8W       0.025700
     35 H6          17.4220    45.5030    39.8100 h1         1 G8W       0.036700
     36 H8          17.5540    47.7570    41.6390 hn         1 G8W       0.283500
     37 H9          18.8040    47.7790    43.2520 hn         1 G8W       0.320500
     38 H10         19.6180    45.3190    44.6100 h1         1 G8W       0.045700
     39 H12         21.7700    47.0600    43.2980 hc         1 G8W       0.051200
     40 H13         21.3040    45.4490    42.7610 hc         1 G8W       0.051200
     41 H14         21.9950    44.5120    45.0050 hc         1 G8W       0.055200
     42 H15         22.5570    46.1080    45.4880 hc         1 G8W       0.055200
     43 H16         23.6330    44.4780    43.1250 hc         1 G8W       0.039700
     44 H17         24.4100    44.6510    44.7280 hc         1 G8W       0.039700
     45 H18         24.1050    45.8640    41.6170 hn         1 G8W       0.154000
     46 H19         24.5310    46.6290    39.4860 ha         1 G8W       0.115000
     47 H20         25.5270    48.4310    38.0390 ha         1 G8W       0.122000
     48 H21         25.8950    48.9360    42.9190 h4         1 G8W       0.073100
@<TRIPOS>BOND
     1     1     2 1   
     2     2     3 1   
     3     2     4 1   
     4     4     5 1   
     5     4    31 1   
     6     4    32 1   
     7     5     6 1   
     8     5    33 1   
     9     5    34 1   
    10     6     7 1   
    11     6    10 1   
    12     6    35 1   
    13     7     8 1   
    14     7     9 1   
    15    10    11 1   
    16    10    36 1   
    17    11    12 2   
    18    11    13 1   
    19    13    14 1   
    20    13    37 1   
    21    14    15 1   
    22    14    18 1   
    23    14    38 1   
    24    15    16 1   
    25    15    17 1   
    26    18    19 1   
    27    18    39 1   
    28    18    40 1   
    29    19    20 1   
    30    19    41 1   
    31    19    42 1   
    32    20    21 1   
    33    20    43 1   
    34    20    44 1   
    35    21    22 2   
    36    21    23 1   
    37    23    24 1   
    38    23    45 1   
    39    24    25 ar  
    40    24    30 ar  
    41    25    26 ar  
    42    25    46 1   
    43    26    27 ar  
    44    26    47 1   
    45    27    28 1   
    46    27    29 ar  
    47    29    30 ar  
    48    30    48 1   
@<TRIPOS>SUBSTRUCTURE
     1 G8W         1 TEMP              0 ****  ****    0 ROOT
