@<TRIPOS>MOLECULE
G8X
   17    17     1     0     0
SMALL
abcg2


@<TRIPOS>ATOM
      1 O2           0.7940    12.9400    62.3510 oh         1 G8X      -0.722000
      2 O           -2.7230    11.2690    63.6880 o          1 G8X      -0.721000
      3 N           -0.6990    12.9840    64.9500 n7         1 G8X      -0.830400
      4 CB          -0.1580    13.8440    62.8520 c5         1 G8X       0.202300
      5 CG           0.4760    14.7510    63.9230 c5         1 G8X      -0.094400
      6 CD          -0.1250    14.2840    65.2610 c5         1 G8X       0.151800
      7 CA          -1.2840    13.1420    63.6230 c5         1 G8X      -0.008500
      8 C           -1.7790    11.7900    63.0780 c          1 G8X       0.737000
      9 O1          -1.1920    11.3140    62.0710 o          1 G8X      -0.721000
     10 H1           0.2390    12.1850    62.0420 ho         1 G8X       0.513000
     11 H           -1.3980    12.7120    65.6290 hn         1 G8X       0.409000
     12 HB2         -0.5910    14.4460    62.0400 h1         1 G8X       0.006700
     13 HG2          1.5610    14.6430    63.9010 hc         1 G8X       0.031200
     14 HG3          0.2540    15.8020    63.7430 hc         1 G8X       0.031200
     15 HD2          0.6200    14.2080    66.0550 h1         1 G8X       0.005700
     16 HD3         -0.8840    15.0080    65.5930 h1         1 G8X       0.005700
     17 HA          -2.1480    13.8320    63.6410 h1         1 G8X       0.004700
@<TRIPOS>BOND
     1     1     4 1   
     2     1    10 1   
     3     2     8 1   
     4     3     6 1   
     5     3     7 1   
     6     3    11 1   
     7     4     5 1   
     8     4     7 1   
     9     4    12 1   
    10     5     6 1   
    11     5    13 1   
    12     5    14 1   
    13     6    15 1   
    14     6    16 1   
    15     7     8 1   
    16     7    17 1   
    17     8     9 1   
@<TRIPOS>SUBSTRUCTURE
     1 G8X         1 TEMP              0 ****  ****    0 ROOT
