@<TRIPOS>MOLECULE
G8X
   17    17     1     0     0
SMALL
No Charge or Current Charge


@<TRIPOS>ATOM
      1 O2           0.1680    13.4700    61.7120 oh         1 G8X      -0.722000
      2 O           -2.5520    11.0220    63.2050 o          1 G8X      -0.721000
      3 N           -0.7730    13.1020    65.1350 n7         1 G8X      -0.830400
      4 CB          -0.4280    14.0390    62.8760 c5         1 G8X       0.202300
      5 CG           0.6570    14.4750    63.9040 c5         1 G8X      -0.094400
      6 CD          -0.1380    14.4240    65.2260 c5         1 G8X       0.151800
      7 CA          -1.3350    13.0550    63.7320 c5         1 G8X      -0.008500
      8 C           -1.4810    11.6050    63.0980 c          1 G8X       0.737000
      9 O1          -0.5350    11.1030    62.4970 o          1 G8X      -0.721000
     10 H1           0.0980    12.4840    61.8680 ho         1 G8X       0.513000
     11 H           -1.5190    13.0000    65.8370 hn         1 G8X       0.409000
     12 HB2         -1.0250    14.9140    62.5850 h1         1 G8X       0.006700
     13 HG2          1.5060    13.7810    63.9270 hc         1 G8X       0.031200
     14 HG3          1.0530    15.4740    63.6930 hc         1 G8X       0.031200
     15 HD2          0.5080    14.5030    66.1110 h1         1 G8X       0.005700
     16 HD3         -0.8950    15.2190    65.2710 h1         1 G8X       0.005700
     17 HA          -2.3460    13.4850    63.7630 h1         1 G8X       0.004700
@<TRIPOS>BOND
     1     1     4 1   
     2     1    10 1   
     3     2     8 1   
     4     3     6 1   
     5     3     7 1   
     6     3    11 1   
     7     4     5 1   
     8     4     7 1   
     9     4    12 1   
    10     5     6 1   
    11     5    13 1   
    12     5    14 1   
    13     6    15 1   
    14     6    16 1   
    15     7     8 1   
    16     7    17 1   
    17     8     9 1   
@<TRIPOS>SUBSTRUCTURE
     1 G8X         1 TEMP              0 ****  ****    0 ROOT
