@<TRIPOS>MOLECULE
G8Z
   34    34     1     0     0
SMALL
bcc


@<TRIPOS>ATOM
      1 O6           6.8440   -19.3810    10.7560 oh         1 G8Z      -0.590800
      2 C6           6.0610   -18.2470    10.4630 c3         1 G8Z       0.145400
      3 C5           6.1280   -17.9830     8.9730 c6         1 G8Z       0.136100
      4 C4           5.4040   -16.6880     8.5860 c6         1 G8Z       0.123100
      5 O4           6.0980   -15.6040     9.1580 os         1 G8Z      -0.409600
      6 C7           5.2940   -14.6900     9.8630 c3         1 G8Z       0.128700
      7 C3           5.3870   -16.5550     7.0660 c6         1 G8Z       0.144100
      8 O3           4.6850   -15.3860     6.7290 oh         1 G8Z      -0.578800
      9 C2           4.7800   -17.8060     6.4300 c6         1 G8Z       0.091100
     10 O2           3.4230   -17.8700     6.7900 oh         1 G8Z      -0.572800
     11 O5           5.5410   -19.1000     8.3240 os         1 G8Z      -0.409600
     12 C1           5.5180   -19.0510     6.9300 c6         1 G8Z       0.308900
     13 O1           6.7900   -19.0410     6.3620 os         1 G8Z      -0.440600
     14 C8           7.6620   -20.1040     6.7290 c3         1 G8Z       0.175600
     15 C9           7.0770   -21.4740     6.5630 c2         1 G8Z      -0.210200
     16 C10          7.4540   -22.3180     5.6110 c2         1 G8Z      -0.197000
     17 HO6          6.8270   -19.5180    11.7070 ho         1 G8Z       0.403000
     18 H61          5.0110   -18.3880    10.7560 h1         1 G8Z       0.032200
     19 H62          6.4270   -17.3580    10.9870 h1         1 G8Z       0.032200
     20 H5           7.1860   -17.8820     8.6880 h1         1 G8Z       0.065700
     21 H4           4.3720   -16.7350     8.9610 h1         1 G8Z       0.074700
     22 H3           6.4320   -16.4900     6.7310 h1         1 G8Z       0.059700
     23 H71C         5.9470   -13.9060    10.2460 h1         1 G8Z       0.032367
     24 H72C         4.5350   -14.2250     9.2260 h1         1 G8Z       0.032367
     25 H73C         4.7860   -15.1560    10.7150 h1         1 G8Z       0.032367
     26 HO3          4.8310   -15.2000     5.7960 ho         1 G8Z       0.405000
     27 H2           4.8990   -17.7470     5.3380 h1         1 G8Z       0.047700
     28 HO2          3.0040   -18.5800     6.2930 ho         1 G8Z       0.403000
     29 H1           4.9620   -19.9490     6.6280 h2         1 G8Z       0.067700
     30 H81C         8.5340   -19.9940     6.0830 h1         1 G8Z       0.057700
     31 H82C         8.0030   -19.9770     7.7630 h1         1 G8Z       0.057700
     32 H9           6.3290   -21.7900     7.2830 ha         1 G8Z       0.131000
     33 H101         7.0300   -23.3110     5.5340 ha         1 G8Z       0.112500
     34 H102         8.2040   -22.0520     4.8760 ha         1 G8Z       0.112500
@<TRIPOS>BOND
     1     1     2 1   
     2     1    17 1   
     3     2     3 1   
     4     2    18 1   
     5     2    19 1   
     6     3     4 1   
     7     3    11 1   
     8     3    20 1   
     9     4     5 1   
    10     4     7 1   
    11     4    21 1   
    12     5     6 1   
    13     6    23 1   
    14     6    24 1   
    15     6    25 1   
    16     7     8 1   
    17     7     9 1   
    18     7    22 1   
    19     8    26 1   
    20     9    10 1   
    21     9    12 1   
    22     9    27 1   
    23    10    28 1   
    24    11    12 1   
    25    12    13 1   
    26    12    29 1   
    27    13    14 1   
    28    14    15 1   
    29    14    30 1   
    30    14    31 1   
    31    15    16 2   
    32    15    32 1   
    33    16    33 1   
    34    16    34 1   
@<TRIPOS>SUBSTRUCTURE
     1 G8Z         1 TEMP              0 ****  ****    0 ROOT
