@<TRIPOS>MOLECULE
G8Z
   34    34     1     0     0
SMALL
No Charge or Current Charge


@<TRIPOS>ATOM
      1 O6           6.6800   -19.4510    11.2310 oh         1 G8Z      -0.713000
      2 C6           6.0600   -18.2350    10.7630 c3         1 G8Z       0.168600
      3 C5           6.1420   -18.0510     9.2110 c6         1 G8Z       0.159300
      4 C4           5.4380   -16.7430     8.7370 c6         1 G8Z       0.146300
      5 O4           6.0820   -15.5960     9.3660 os         1 G8Z      -0.456000
      6 C7           5.4500   -14.3060     9.2660 c3         1 G8Z       0.151900
      7 C3           5.4290   -16.6800     7.1620 c6         1 G8Z       0.167300
      8 O3           4.6300   -15.5940     6.6560 oh         1 G8Z      -0.701000
      9 C2           4.8550   -17.9950     6.5560 c6         1 G8Z       0.114300
     10 O2           3.4260   -18.0420     6.8250 oh         1 G8Z      -0.695000
     11 O5           5.5520   -19.2220     8.5810 os         1 G8Z      -0.456000
     12 C1           5.6280   -19.2280     7.1390 c6         1 G8Z       0.355300
     13 O1           7.0110   -19.2160     6.7300 os         1 G8Z      -0.487000
     14 C8           7.7910   -20.3850     7.0390 c3         1 G8Z       0.198800
     15 C9           7.2800   -21.5430     6.2020 c2         1 G8Z      -0.260200
     16 C10          7.1840   -21.5600     4.8610 c2         1 G8Z      -0.297000
     17 HO6          6.5150   -19.5040    12.2010 ho         1 G8Z       0.502000
     18 H61          5.0010   -18.2180    11.0530 h1         1 G8Z       0.032200
     19 H62          6.5400   -17.3690    11.2390 h1         1 G8Z       0.032200
     20 H5           7.2060   -17.9980     8.9400 h1         1 G8Z       0.065700
     21 H4           4.3960   -16.7830     9.0880 h1         1 G8Z       0.074700
     22 H3           6.4700   -16.5680     6.8220 h1         1 G8Z       0.059700
     23 H71C         5.9150   -13.6040     9.9690 h1         1 G8Z       0.032367
     24 H72C         5.5620   -13.8840     8.2600 h1         1 G8Z       0.032367
     25 H73C         4.3820   -14.3710     9.5090 h1         1 G8Z       0.032367
     26 HO3          3.7340   -16.0020     6.5620 ho         1 G8Z       0.504000
     27 H2           5.0250   -17.9800     5.4690 h1         1 G8Z       0.047700
     28 HO2          3.0840   -18.8970     6.4710 ho         1 G8Z       0.502000
     29 H1           5.1500   -20.1440     6.7590 h2         1 G8Z       0.067700
     30 H81C         8.8480   -20.2060     6.8020 h1         1 G8Z       0.057700
     31 H82C         7.7300   -20.6300     8.1090 h1         1 G8Z       0.057700
     32 H9           6.9830   -22.4140     6.7900 ha         1 G8Z       0.181000
     33 H101         6.8080   -22.4330     4.3240 ha         1 G8Z       0.162500
     34 H102         7.4770   -20.7010     4.2560 ha         1 G8Z       0.162500
@<TRIPOS>BOND
     1     1     2 1   
     2     1    17 1   
     3     2     3 1   
     4     2    18 1   
     5     2    19 1   
     6     3     4 1   
     7     3    11 1   
     8     3    20 1   
     9     4     5 1   
    10     4     7 1   
    11     4    21 1   
    12     5     6 1   
    13     6    23 1   
    14     6    24 1   
    15     6    25 1   
    16     7     8 1   
    17     7     9 1   
    18     7    22 1   
    19     8    26 1   
    20     9    10 1   
    21     9    12 1   
    22     9    27 1   
    23    10    28 1   
    24    11    12 1   
    25    12    13 1   
    26    12    29 1   
    27    13    14 1   
    28    14    15 1   
    29    14    30 1   
    30    14    31 1   
    31    15    16 2   
    32    15    32 1   
    33    16    33 1   
    34    16    34 1   
@<TRIPOS>SUBSTRUCTURE
     1 G8Z         1 TEMP              0 ****  ****    0 ROOT
