@<TRIPOS>MOLECULE
G90
   52    54     1     0     0
SMALL
bcc


@<TRIPOS>ATOM
      1 N1          -6.0610    -2.0600     2.2970 n1         1 G90      -0.363800
      2 C12         -6.2220    -1.1930     1.5530 cg         1 G90       0.247800
      3 C7          -6.4450    -0.1290     0.6360 ca         1 G90      -0.059000
      4 C6          -5.3570     0.3860    -0.0900 ca         1 G90       0.184100
      5 C11         -5.5820     1.4280    -0.9850 ca         1 G90      -0.230000
      6 C10         -6.8630     1.9380    -1.1410 ca         1 G90      -0.066000
      7 C9          -7.9390     1.4310    -0.4230 ca         1 G90      -0.175000
      8 C8          -7.7260     0.3940     0.4680 ca         1 G90      -0.052000
      9 O2          -4.1770    -0.1840     0.1480 os         1 G90      -0.293900
     10 C5          -3.0210     0.3090    -0.5150 c3         1 G90       0.103400
     11 C4          -1.8290    -0.5000    -0.0320 c3         1 G90       0.144100
     12 O1          -1.9840    -1.8710    -0.3000 oh         1 G90      -0.557800
     13 C3          -0.5470     0.0850    -0.6160 c3         1 G90       0.133800
     14 N            0.6090    -0.5960    -0.0760 n7         1 G90      -0.810200
     15 CA           1.9270    -0.1780    -0.5640 c3         1 G90       0.196200
     16 C1           2.0190    -0.4270    -2.0670 c3         1 G90      -0.101600
     17 C2           2.2290     1.2940    -0.2680 c3         1 G90      -0.101600
     18 CB           2.9270    -1.0970     0.1760 c3         1 G90       0.003800
     19 CG           4.3760    -0.8790    -0.1170 cc         1 G90      -0.136400
     20 CD2          5.2920    -0.0230     0.5820 ca         1 G90      -0.095800
     21 CE3          5.1740     0.8310     1.6860 ca         1 G90      -0.080000
     22 CZ3          6.2870     1.5220     2.1240 ca         1 G90      -0.160000
     23 CH2          7.5280     1.3810     1.4790 ca         1 G90      -0.110000
     24 CZ2          7.6780     0.5420     0.3920 ca         1 G90      -0.147000
     25 CE2          6.5530    -0.1560    -0.0440 ca         1 G90      -0.048200
     26 NE1          6.4060    -1.0470    -1.0650 na         1 G90      -0.173400
     27 CD1          5.1110    -1.4810    -1.1020 cd         1 G90      -0.107100
     28 H8          -8.5460    -0.0170     1.0420 ha         1 G90       0.145000
     29 H11         -4.7720     1.8520    -1.5630 ha         1 G90       0.138000
     30 H10         -7.0170     2.7490    -1.8390 ha         1 G90       0.132000
     31 H9          -8.9300     1.8400    -0.5540 ha         1 G90       0.140000
     32 H51C        -3.1360     0.2140    -1.6010 h1         1 G90       0.039200
     33 H52C        -2.8740     1.3680    -0.2810 h1         1 G90       0.039200
     34 H4          -1.7840    -0.4110     1.0600 h1         1 G90       0.085700
     35 H1          -1.8380    -2.0170    -1.2410 ho         1 G90       0.400000
     36 H31C        -0.5680    -0.0370    -1.7040 h1         1 G90       0.032200
     37 H32C        -0.5490     1.1700    -0.4340 h1         1 G90       0.032200
     38 H            0.5950    -0.4900     0.9330 hn         1 G90       0.359800
     39 H11C         1.3600     0.2320    -2.6330 hc         1 G90       0.038200
     40 H12C         3.0340    -0.2410    -2.4190 hc         1 G90       0.038200
     41 H13C         1.7560    -1.4590    -2.3090 hc         1 G90       0.038200
     42 H21C         2.1750     1.4950     0.8040 hc         1 G90       0.038200
     43 H22C         3.2260     1.5710    -0.6100 hc         1 G90       0.038200
     44 H23C         1.5180     1.9540    -0.7680 hc         1 G90       0.038200
     45 HB1C         2.7610    -0.9840     1.2540 hc         1 G90       0.052700
     46 HB2C         2.6570    -2.1290    -0.0650 hc         1 G90       0.052700
     47 HD1          4.7990    -2.2060    -1.8380 h4         1 G90       0.162000
     48 HE3          4.2240     0.9490     2.1930 ha         1 G90       0.130000
     49 HZ3          6.2070     2.1840     2.9770 ha         1 G90       0.128000
     50 HH2          8.3810     1.9400     1.8420 ha         1 G90       0.128000
     51 HZ2          8.6360     0.4300    -0.1010 ha         1 G90       0.130000
     52 HE1          7.1350    -1.3540    -1.6860 hn         1 G90       0.299700
@<TRIPOS>BOND
     1     1     2 3   
     2     2     3 1   
     3     3     4 ar  
     4     3     8 ar  
     5     4     5 ar  
     6     4     9 1   
     7     5     6 ar  
     8     5    29 1   
     9     6     7 ar  
    10     6    30 1   
    11     7     8 ar  
    12     7    31 1   
    13     8    28 1   
    14     9    10 1   
    15    10    11 1   
    16    10    32 1   
    17    10    33 1   
    18    11    12 1   
    19    11    13 1   
    20    11    34 1   
    21    12    35 1   
    22    13    14 1   
    23    13    36 1   
    24    13    37 1   
    25    14    15 1   
    26    14    38 1   
    27    15    16 1   
    28    15    17 1   
    29    15    18 1   
    30    16    39 1   
    31    16    40 1   
    32    16    41 1   
    33    17    42 1   
    34    17    43 1   
    35    17    44 1   
    36    18    19 1   
    37    18    45 1   
    38    18    46 1   
    39    19    20 1   
    40    19    27 2   
    41    20    21 ar  
    42    20    25 ar  
    43    21    22 ar  
    44    21    48 1   
    45    22    23 ar  
    46    22    49 1   
    47    23    24 ar  
    48    23    50 1   
    49    24    25 ar  
    50    24    51 1   
    51    25    26 1   
    52    26    27 1   
    53    26    52 1   
    54    27    47 1   
@<TRIPOS>SUBSTRUCTURE
     1 G90         1 TEMP              0 ****  ****    0 ROOT
