@<TRIPOS>MOLECULE
G90
   52    54     1     0     0
SMALL
No Charge or Current Charge


@<TRIPOS>ATOM
      1 N1          -6.3300    -2.0500     2.3690 n1         1 G90      -0.453000
      2 C12         -6.4720    -1.2620     1.5190 cg         1 G90       0.337000
      3 C7          -6.6690    -0.2940     0.4760 ca         1 G90      -0.059000
      4 C6          -5.5640     0.3140    -0.1610 ca         1 G90       0.184100
      5 C11         -5.7900     1.2640    -1.1840 ca         1 G90      -0.212000
      6 C10         -7.1000     1.6000    -1.5640 ca         1 G90      -0.048000
      7 C9          -8.1930     0.9920    -0.9280 ca         1 G90      -0.157000
      8 C8          -7.9800     0.0480     0.0900 ca         1 G90      -0.034000
      9 O2          -4.2860    -0.0380     0.2360 os         1 G90      -0.317100
     10 C5          -3.1050     0.5290    -0.3640 c3         1 G90       0.126600
     11 C4          -1.8560    -0.0880     0.3150 c3         1 G90       0.167300
     12 O1          -1.7390    -1.4900     0.0320 oh         1 G90      -0.620000
     13 C3          -0.5330     0.5660    -0.1610 c3         1 G90       0.133800
     14 N            0.6260    -0.3130     0.1880 n7         1 G90      -0.865400
     15 CA           1.9660    -0.0070    -0.3790 c3         1 G90       0.196200
     16 C1           1.9140    -0.1430    -1.9240 c3         1 G90      -0.101600
     17 C2           2.3770     1.4320     0.0280 c3         1 G90      -0.101600
     18 CB           2.9440    -1.0670     0.2240 c3         1 G90       0.003800
     19 CG           4.3880    -0.9610    -0.2140 cc         1 G90      -0.136400
     20 CD2          5.4320    -0.1940     0.4110 ca         1 G90      -0.095800
     21 CE3          5.4070     0.6170     1.5570 ca         1 G90      -0.062000
     22 CZ3          6.6050     1.2540     1.9440 ca         1 G90      -0.142000
     23 CH2          7.7890     1.0650     1.1930 ca         1 G90      -0.092000
     24 CZ2          7.7830     0.2350     0.0520 ca         1 G90      -0.129000
     25 CE2          6.5780    -0.3830    -0.3100 ca         1 G90      -0.048200
     26 NE1          6.3530    -1.2380    -1.3720 na         1 G90      -0.223700
     27 CD1          4.9870    -1.6020    -1.2960 cd         1 G90      -0.157100
     28 H8          -8.8350    -0.4180     0.5770 ha         1 G90       0.127000
     29 H11         -4.9640     1.7510    -1.6950 ha         1 G90       0.120000
     30 H10         -7.2680     2.3320    -2.3520 ha         1 G90       0.114000
     31 H9          -9.2070     1.2530    -1.2230 ha         1 G90       0.122000
     32 H51C        -3.0760     0.3210    -1.4410 h1         1 G90       0.039200
     33 H52C        -3.0890     1.6170    -0.2200 h1         1 G90       0.039200
     34 H4          -1.9380     0.0700     1.3990 h1         1 G90       0.085700
     35 H1          -0.7580    -1.5910    -0.0560 ho         1 G90       0.439000
     36 H31C        -0.6010     0.7100    -1.2460 h1         1 G90       0.032200
     37 H32C        -0.4350     1.5570     0.3010 h1         1 G90       0.032200
     38 H            0.7210    -0.3140     1.2120 hn         1 G90       0.415000
     39 H11C         1.2590     0.6100    -2.3760 hc         1 G90       0.038200
     40 H12C         2.9090     0.0000    -2.3620 hc         1 G90       0.038200
     41 H13C         1.5530    -1.1350    -2.2180 hc         1 G90       0.038200
     42 H21C         2.3640     1.5520     1.1170 hc         1 G90       0.038200
     43 H22C         3.3870     1.6650    -0.3300 hc         1 G90       0.038200
     44 H23C         1.7040     2.1800    -0.4070 hc         1 G90       0.038200
     45 HB1C         2.9020    -1.0080     1.3190 hc         1 G90       0.052700
     46 HB2C         2.5750    -2.0680    -0.0280 hc         1 G90       0.052700
     47 HD1          4.5370    -2.2800    -2.0170 h4         1 G90       0.212000
     48 HE3          4.4950     0.7520     2.1320 ha         1 G90       0.112000
     49 HZ3          6.6180     1.8910     2.8250 ha         1 G90       0.110000
     50 HH2          8.7090     1.5590     1.4990 ha         1 G90       0.110000
     51 HZ2          8.6900     0.0790    -0.5280 ha         1 G90       0.112000
     52 HE1          7.0320    -1.5480    -2.0610 hn         1 G90       0.350000
@<TRIPOS>BOND
     1     1     2 3   
     2     2     3 1   
     3     3     4 ar  
     4     3     8 ar  
     5     4     5 ar  
     6     4     9 1   
     7     5     6 ar  
     8     5    29 1   
     9     6     7 ar  
    10     6    30 1   
    11     7     8 ar  
    12     7    31 1   
    13     8    28 1   
    14     9    10 1   
    15    10    11 1   
    16    10    32 1   
    17    10    33 1   
    18    11    12 1   
    19    11    13 1   
    20    11    34 1   
    21    12    35 1   
    22    13    14 1   
    23    13    36 1   
    24    13    37 1   
    25    14    15 1   
    26    14    38 1   
    27    15    16 1   
    28    15    17 1   
    29    15    18 1   
    30    16    39 1   
    31    16    40 1   
    32    16    41 1   
    33    17    42 1   
    34    17    43 1   
    35    17    44 1   
    36    18    19 1   
    37    18    45 1   
    38    18    46 1   
    39    19    20 1   
    40    19    27 2   
    41    20    21 ar  
    42    20    25 ar  
    43    21    22 ar  
    44    21    48 1   
    45    22    23 ar  
    46    22    49 1   
    47    23    24 ar  
    48    23    50 1   
    49    24    25 ar  
    50    24    51 1   
    51    25    26 1   
    52    26    27 1   
    53    26    52 1   
    54    27    47 1   
@<TRIPOS>SUBSTRUCTURE
     1 G90         1 TEMP              0 ****  ****    0 ROOT
