@<TRIPOS>MOLECULE
G91
   64    69     1     0     0
SMALL
No Charge or Current Charge


@<TRIPOS>ATOM
      1 C4           1.5260     1.5590     1.3470 ca         1 G91      -0.181500
      2 C14         -5.0830     1.2480    -0.1550 ca         1 G91       0.169100
      3 C5           0.2480     1.1180     1.7270 ca         1 G91      -0.047500
      4 C6          -0.5180     0.3190     0.8540 ca         1 G91      -0.167300
      5 C11         -4.2720    -1.1010    -1.6710 c3         1 G91      -0.072200
      6 C7          -1.9180    -0.1470     1.2890 c6         1 G91       0.279800
      7 C9          -2.9670    -0.0580     0.1700 ce         1 G91      -0.086400
      8 C10         -3.2280    -1.1790    -0.5560 cf         1 G91      -0.015400
      9 C12         -5.7240    -0.8980    -1.1720 c3         1 G91       0.178600
     10 C3           2.0580     1.2090     0.0970 ca         1 G91       0.156100
     11 C1           0.0190    -0.0360    -0.4020 ca         1 G91      -0.047500
     12 C2           1.2990     0.4060    -0.7800 ca         1 G91      -0.181500
     13 O13         -5.7880     0.0680    -0.0980 os         1 G91      -0.367100
     14 C15         -3.6790     1.2430    -0.0070 ca         1 G91      -0.113800
     15 C16         -2.9830     2.4690    -0.0230 ca         1 G91      -0.051000
     16 C17         -3.6880     3.6760    -0.1730 ca         1 G91      -0.159000
     17 C18         -5.0850     3.6690    -0.3000 ca         1 G91       0.158100
     18 C19         -5.7850     2.4550    -0.2840 ca         1 G91      -0.229000
     19 O20         -5.7580     4.8450    -0.4340 oh         1 G91      -0.531100
     20 C21         -2.5430    -2.4670    -0.2700 ca         1 G91      -0.162800
     21 C22         -2.5450    -3.5970    -1.1250 ca         1 G91      -0.032000
     22 C23         -1.8900    -4.7790    -0.7370 ca         1 G91      -0.181000
     23 C24         -1.2320    -4.8560     0.4960 ca         1 G91       0.177100
     24 C25         -1.2110    -3.7460     1.3450 ca         1 G91      -0.241000
     25 C26         -1.8440    -2.5570     0.9570 ca         1 G91       0.194100
     26 O27         -1.7980    -1.4850     1.8200 os         1 G91      -0.335100
     27 O28         -0.6100    -6.0100     0.8600 oh         1 G91      -0.530100
     28 O29          3.3180     1.6730    -0.2200 os         1 G91      -0.326100
     29 C30          3.9560     1.3640    -1.4770 c3         1 G91       0.166600
     30 C31          5.3570     2.0290    -1.5130 c3         1 G91       0.168800
     31 N32          6.3040     1.4890    -0.5190 nq         1 G91      -0.702600
     32 C33          7.7200     1.9530    -0.4690 cy         1 G91       0.153300
     33 C34          7.9610     0.6230     0.3200 cy         1 G91      -0.136700
     34 C35          6.7950     0.0820    -0.5740 cy         1 G91       0.153300
     35 C36          9.3360    -0.0440     0.2180 c3         1 G91       0.195600
     36 F37          9.2480    -1.2770     0.7740 f          1 G91      -0.268000
     37 H1           2.1090     2.1760     2.0250 ha         1 G91       0.123000
     38 H2          -0.1470     1.3990     2.7020 ha         1 G91       0.118000
     39 H4          -4.2790    -1.9670    -2.3330 hc         1 G91       0.058700
     40 H5          -2.2500     0.4990     2.1150 h1         1 G91       0.090700
     41 H6          -6.3450    -0.5710    -2.0160 h1         1 G91       0.051200
     42 H7          -6.1220    -1.8590    -0.8230 h1         1 G91       0.051200
     43 H8          -0.5500    -0.6540    -1.0910 ha         1 G91       0.118000
     44 H9           1.6800     0.1160    -1.7540 ha         1 G91       0.123000
     45 H10         -1.9010     2.4940     0.0720 ha         1 G91       0.125000
     46 H11         -3.1490     4.6200    -0.1870 ha         1 G91       0.132000
     47 H12         -6.8680     2.4360    -0.3730 ha         1 G91       0.125000
     48 H13         -6.7150     4.6450    -0.5070 ho         1 G91       0.467000
     49 H14         -3.0310    -3.5890    -2.0930 ha         1 G91       0.111000
     50 H15         -1.8970    -5.6420    -1.3990 ha         1 G91       0.130000
     51 H16         -0.6980    -3.7880     2.3020 ha         1 G91       0.131000
     52 H17         -0.2090    -5.8770     1.7440 ho         1 G91       0.469000
     53 H18          4.0640     0.2790    -1.6040 h1         1 G91       0.036200
     54 H19          3.3600     1.7530    -2.3120 h1         1 G91       0.036200
     55 H20          5.7830     1.8920    -2.5160 h1         1 G91       0.042700
     56 H21          5.2420     3.1080    -1.3450 h1         1 G91       0.042700
     57 H23          8.2310     1.9960    -1.4400 h1         1 G91       0.050200
     58 H24          7.9080     2.8710     0.1000 h1         1 G91       0.050200
     59 H25          7.6950     0.6980     1.3810 hc         1 G91       0.087700
     60 H26          6.1580    -0.6720    -0.0970 h1         1 G91       0.050200
     61 H27          7.1160    -0.2620    -1.5660 h1         1 G91       0.050200
     62 H28          9.6320    -0.1410    -0.8340 h1         1 G91       0.043700
     63 H29         10.0810     0.5480     0.7640 h1         1 G91       0.043700
     64 H3          -4.0220    -0.2620    -2.3320 hc         1 G91       0.058700
@<TRIPOS>BOND
     1     1     3 ar  
     2     1    10 ar  
     3     1    37 1   
     4     2    13 1   
     5     2    14 ar  
     6     2    18 ar  
     7     3     4 ar  
     8     3    38 1   
     9     4     6 1   
    10     4    11 ar  
    11     5     8 1   
    12     5     9 1   
    13     5    39 1   
    14     5    64 1   
    15     6     7 1   
    16     6    26 1   
    17     6    40 1   
    18     7     8 2   
    19     7    14 1   
    20     8    20 1   
    21     9    13 1   
    22     9    41 1   
    23     9    42 1   
    24    10    12 ar  
    25    10    28 1   
    26    11    12 ar  
    27    11    43 1   
    28    12    44 1   
    29    14    15 ar  
    30    15    16 ar  
    31    15    45 1   
    32    16    17 ar  
    33    16    46 1   
    34    17    18 ar  
    35    17    19 1   
    36    18    47 1   
    37    19    48 1   
    38    20    21 ar  
    39    20    25 ar  
    40    21    22 ar  
    41    21    49 1   
    42    22    23 ar  
    43    22    50 1   
    44    23    24 ar  
    45    23    27 1   
    46    24    25 ar  
    47    24    51 1   
    48    25    26 1   
    49    27    52 1   
    50    28    29 1   
    51    29    30 1   
    52    29    53 1   
    53    29    54 1   
    54    30    31 1   
    55    30    55 1   
    56    30    56 1   
    57    31    32 1   
    58    31    34 1   
    59    32    33 1   
    60    32    57 1   
    61    32    58 1   
    62    33    34 1   
    63    33    35 1   
    64    33    59 1   
    65    34    60 1   
    66    34    61 1   
    67    35    36 1   
    68    35    62 1   
    69    35    63 1   
@<TRIPOS>SUBSTRUCTURE
     1 G91         1 TEMP              0 ****  ****    0 ROOT
