@<TRIPOS>MOLECULE
G91
   64    69     1     0     0
SMALL
abcg2


@<TRIPOS>ATOM
      1 C4           1.5610     1.5260     1.4720 ca         1 G91      -0.181500
      2 C14         -5.0820     1.1360    -0.3120 ca         1 G91       0.169100
      3 C5           0.2850     1.1090     1.7930 ca         1 G91      -0.047500
      4 C6          -0.5320     0.4810     0.8530 ca         1 G91      -0.167300
      5 C11         -4.0620    -1.0800    -1.7200 c3         1 G91      -0.072200
      6 C7          -1.8970    -0.0130     1.2760 c6         1 G91       0.279800
      7 C9          -2.9270    -0.0090     0.1790 ce         1 G91      -0.086400
      8 C10         -3.1000    -1.1160    -0.5670 cf         1 G91      -0.015400
      9 C12         -5.5100    -1.0180    -1.2660 c3         1 G91       0.178600
     10 C3           2.0640     1.3170     0.1850 ca         1 G91       0.156100
     11 C1          -0.0280     0.2910    -0.4260 ca         1 G91      -0.047500
     12 C2           1.2580     0.6950    -0.7660 ca         1 G91      -0.181500
     13 O13         -5.7350    -0.0520    -0.2440 os         1 G91      -0.367100
     14 C15         -3.7050     1.2110    -0.0530 ca         1 G91      -0.113800
     15 C16         -3.1360     2.4850     0.0130 ca         1 G91      -0.051000
     16 C17         -3.8760     3.6340    -0.1940 ca         1 G91      -0.159000
     17 C18         -5.2380     3.5340    -0.4720 ca         1 G91       0.158100
     18 C19         -5.8370     2.2800    -0.5310 ca         1 G91      -0.229000
     19 O20         -5.9270     4.6730    -0.6710 oh         1 G91      -0.531100
     20 C21         -2.3490    -2.3200    -0.2290 ca         1 G91      -0.162800
     21 C22         -2.2570    -3.4580    -1.0300 ca         1 G91      -0.032000
     22 C23         -1.5710    -4.5890    -0.6250 ca         1 G91      -0.181000
     23 C24         -0.9530    -4.6060     0.6250 ca         1 G91       0.177100
     24 C25         -1.0190    -3.4850     1.4460 ca         1 G91      -0.241000
     25 C26         -1.7050    -2.3600     1.0160 ca         1 G91       0.194100
     26 O27         -1.7820    -1.3150     1.8620 os         1 G91      -0.335100
     27 O28         -0.2960    -5.7230     0.9860 oh         1 G91      -0.530100
     28 O29          3.3150     1.7510    -0.0410 os         1 G91      -0.326100
     29 C30          3.9210     1.4790    -1.2920 c3         1 G91       0.166600
     30 C31          5.3390     2.0000    -1.2660 c3         1 G91       0.168800
     31 N32          6.1280     1.3730    -0.2420 nq         1 G91      -0.702600
     32 C33          7.5440     1.7260    -0.1480 cy         1 G91       0.153300
     33 C34          7.8500     0.2630     0.2150 cy         1 G91      -0.136700
     34 C35          6.4660    -0.0460    -0.3800 cy         1 G91       0.153300
     35 C36          9.0630    -0.3510    -0.4180 c3         1 G91       0.195600
     36 F37          9.1030    -1.7180    -0.1370 f          1 G91      -0.268000
     37 H1           2.1800     2.0180     2.2130 ha         1 G91       0.123000
     38 H2          -0.0840     1.2780     2.7980 ha         1 G91       0.118000
     39 H4          -3.9650    -1.9480    -2.3710 hc         1 G91       0.058700
     40 H5          -2.2480     0.6120     2.1000 h1         1 G91       0.090700
     41 H6          -6.1550    -0.8130    -2.1270 h1         1 G91       0.051200
     42 H7          -5.8170    -1.9710    -0.8340 h1         1 G91       0.051200
     43 H8          -0.6390    -0.1740    -1.1880 ha         1 G91       0.118000
     44 H9           1.6050     0.5230    -1.7760 ha         1 G91       0.123000
     45 H10         -2.0780     2.5850     0.2200 ha         1 G91       0.125000
     46 H11         -3.4040     4.6070    -0.1370 ha         1 G91       0.132000
     47 H12         -6.9000     2.1830    -0.7210 ha         1 G91       0.125000
     48 H13         -6.8570     4.4810    -0.8370 ho         1 G91       0.467000
     49 H14         -2.7330    -3.4750    -2.0010 ha         1 G91       0.111000
     50 H15         -1.5170    -5.4560    -1.2690 ha         1 G91       0.130000
     51 H16         -0.5380    -3.4770     2.4180 ha         1 G91       0.131000
     52 H17          0.0860    -5.6230     1.8640 ho         1 G91       0.469000
     53 H18          3.9150     0.4000    -1.4910 h1         1 G91       0.036200
     54 H19          3.3730     1.9640    -2.1060 h1         1 G91       0.036200
     55 H20          5.7550     1.8420    -2.2760 h1         1 G91       0.042700
     56 H21          5.3330     3.0800    -1.0950 h1         1 G91       0.042700
     57 H23          7.9890     2.0070    -1.1140 h1         1 G91       0.050200
     58 H24          7.7890     2.4990     0.5840 h1         1 G91       0.050200
     59 H25          7.8680     0.1160     1.2970 hc         1 G91       0.087700
     60 H26          5.8180    -0.7400     0.1610 h1         1 G91       0.050200
     61 H27          6.5380    -0.3770    -1.4270 h1         1 G91       0.050200
     62 H28          9.0460    -0.2320    -1.5030 h1         1 G91       0.043700
     63 H29          9.9780     0.1010    -0.0310 h1         1 G91       0.043700
     64 H3          -3.8410    -0.2110    -2.3470 hc         1 G91       0.058700
@<TRIPOS>BOND
     1     1     3 ar  
     2     1    10 ar  
     3     1    37 1   
     4     2    13 1   
     5     2    14 ar  
     6     2    18 ar  
     7     3     4 ar  
     8     3    38 1   
     9     4     6 1   
    10     4    11 ar  
    11     5     8 1   
    12     5     9 1   
    13     5    39 1   
    14     5    64 1   
    15     6     7 1   
    16     6    26 1   
    17     6    40 1   
    18     7     8 2   
    19     7    14 1   
    20     8    20 1   
    21     9    13 1   
    22     9    41 1   
    23     9    42 1   
    24    10    12 ar  
    25    10    28 1   
    26    11    12 ar  
    27    11    43 1   
    28    12    44 1   
    29    14    15 ar  
    30    15    16 ar  
    31    15    45 1   
    32    16    17 ar  
    33    16    46 1   
    34    17    18 ar  
    35    17    19 1   
    36    18    47 1   
    37    19    48 1   
    38    20    21 ar  
    39    20    25 ar  
    40    21    22 ar  
    41    21    49 1   
    42    22    23 ar  
    43    22    50 1   
    44    23    24 ar  
    45    23    27 1   
    46    24    25 ar  
    47    24    51 1   
    48    25    26 1   
    49    27    52 1   
    50    28    29 1   
    51    29    30 1   
    52    29    53 1   
    53    29    54 1   
    54    30    31 1   
    55    30    55 1   
    56    30    56 1   
    57    31    32 1   
    58    31    34 1   
    59    32    33 1   
    60    32    57 1   
    61    32    58 1   
    62    33    34 1   
    63    33    35 1   
    64    33    59 1   
    65    34    60 1   
    66    34    61 1   
    67    35    36 1   
    68    35    62 1   
    69    35    63 1   
@<TRIPOS>SUBSTRUCTURE
     1 G91         1 TEMP              0 ****  ****    0 ROOT
