@<TRIPOS>MOLECULE
G93
   58    61     1     0     0
SMALL
abcg2


@<TRIPOS>ATOM
      1 C3          -2.8150    -2.2800     0.0030 cg         1 G93      -0.192000
      2 N2           0.2320     1.2440    -0.0230 na         1 G93      -0.127600
      3 N3          -1.9070     0.5960    -0.0510 nc         1 G93      -0.580100
      4 C2          -1.4520    -1.8670     0.0370 ca         1 G93       0.496000
      5 N1          -0.4980    -2.7770     0.0950 nb         1 G93      -0.628000
      6 C1          -1.1130    -0.5040     0.0070 ca         1 G93       0.067400
      7 C17         -2.9630     3.3370    -0.3200 cc         1 G93       0.514900
      8 N5          -3.0310     4.6340    -0.2360 nd         1 G93      -0.439300
      9 O3          -1.7670     5.0560     0.0310 os         1 G93       0.115600
     10 N4          -0.9150     4.0470     0.1220 nc         1 G93      -0.316300
     11 C16         -1.5920     2.9640    -0.0900 cd         1 G93       0.189700
     12 C15         -1.0800     1.6110    -0.0590 cd         1 G93       0.368800
     13 C13          1.4010     2.1200    -0.0490 c3         1 G93       0.081600
     14 C14          1.8980     2.4640     1.3420 c3         1 G93      -0.109100
     15 C4          -3.9760    -2.6040    -0.0240 c1         1 G93      -0.135100
     16 C5          -5.3940    -3.0040    -0.0520 c3         1 G93       0.276100
     17 C7          -6.2710    -1.7520    -0.0840 c3         1 G93      -0.099100
     18 C6          -5.6490    -3.8740    -1.2810 c3         1 G93      -0.099100
     19 O1          -5.6890    -3.8040     1.0770 oh         1 G93      -0.648000
     20 C12          0.2300    -0.1240     0.0370 ca         1 G93      -0.086200
     21 C9           1.2360    -1.0950     0.1210 ca         1 G93       0.121100
     22 C8           0.7890    -2.4110     0.1390 ca         1 G93       0.246900
     23 C10          3.5430    -1.6770     0.2380 c3         1 G93       0.167600
     24 C11          4.8740    -0.9670     0.3680 c6         1 G93      -0.067700
     25 C18          5.1620    -0.0470    -0.8160 c6         1 G93       0.167800
     26 N7           6.4590     0.5810    -0.6500 n7         1 G93      -0.865400
     27 C19          7.5380    -0.3910    -0.6350 c6         1 G93       0.158800
     28 C20          7.3600    -1.3310     0.5460 c6         1 G93      -0.073400
     29 C21          5.9920    -2.0040     0.4900 c6         1 G93      -0.073400
     30 HN6         -4.9230     2.8840    -0.5260 hn         1 G93       0.502000
     31 HN6A        -3.8590     1.5460    -0.3990 hn         1 G93       0.502000
     32 H13          2.1730     1.6240    -0.6300 h1         1 G93       0.073200
     33 H13A         1.1270     3.0180    -0.5950 h1         1 G93       0.073200
     34 H14          1.1250     2.9590     1.9290 hc         1 G93       0.053033
     35 H14A         2.2260     1.5740     1.8770 hc         1 G93       0.053033
     36 H14B         2.7470     3.1420     1.2650 hc         1 G93       0.053033
     37 H7          -6.0600    -1.1440    -0.9630 hc         1 G93       0.047533
     38 H7A         -7.3230    -2.0400    -0.1120 hc         1 G93       0.047533
     39 H7B         -6.1070    -1.1320     0.7990 hc         1 G93       0.047533
     40 H6          -5.0320    -4.7720    -1.2600 hc         1 G93       0.047533
     41 H6A         -6.6970    -4.1710    -1.3160 hc         1 G93       0.047533
     42 H6B         -5.4200    -3.3240    -2.1920 hc         1 G93       0.047533
     43 HO1         -5.6230    -3.2570     1.8680 ho         1 G93       0.447000
     44 H8           1.4980    -3.2270     0.1920 h4         1 G93       0.027100
     45 H10          3.3890    -2.3430     1.0950 h1         1 G93       0.042700
     46 H10A         3.5190    -2.2890    -0.6710 h1         1 G93       0.042700
     47 H11          4.8600    -0.3610     1.2820 hc         1 G93       0.076700
     48 H18          5.0960    -0.6440    -1.7440 h1         1 G93       0.032700
     49 H18A         4.4080     0.7390    -0.8890 h1         1 G93       0.032700
     50 HN7          6.6070     1.2440    -1.3990 hn         1 G93       0.415000
     51 H19          7.5760    -0.9880    -1.5620 h1         1 G93       0.031200
     52 H19A         8.4900     0.1400    -0.5600 h1         1 G93       0.031200
     53 H20          8.1520    -2.0830     0.5470 hc         1 G93       0.050700
     54 H20A         7.4520    -0.7630     1.4770 hc         1 G93       0.050700
     55 H21          5.8380    -2.6310     1.3730 hc         1 G93       0.040700
     56 H21A         5.9560    -2.6710    -0.3790 hc         1 G93       0.040700
     57 O2           2.5080    -0.6990     0.1890 os         1 G93      -0.347100
     58 N6          -3.9890     2.5210    -0.6250 nv         1 G93      -1.040900
@<TRIPOS>BOND
     1     1     4 1   
     2     1    15 3   
     3     2    12 1   
     4     2    13 1   
     5     2    20 1   
     6     3     6 1   
     7     3    12 2   
     8     4     5 ar  
     9     4     6 ar  
    10     5    22 ar  
    11     6    20 ar  
    12     7     8 2   
    13     7    11 1   
    14     7    58 1   
    15     8     9 1   
    16     9    10 1   
    17    10    11 2   
    18    11    12 1   
    19    13    14 1   
    20    13    32 1   
    21    13    33 1   
    22    14    34 1   
    23    14    35 1   
    24    14    36 1   
    25    15    16 1   
    26    16    17 1   
    27    16    18 1   
    28    16    19 1   
    29    17    37 1   
    30    17    38 1   
    31    17    39 1   
    32    18    40 1   
    33    18    41 1   
    34    18    42 1   
    35    19    43 1   
    36    20    21 ar  
    37    21    22 ar  
    38    21    57 1   
    39    22    44 1   
    40    23    24 1   
    41    23    45 1   
    42    23    46 1   
    43    23    57 1   
    44    24    25 1   
    45    24    29 1   
    46    24    47 1   
    47    25    26 1   
    48    25    48 1   
    49    25    49 1   
    50    26    27 1   
    51    26    50 1   
    52    27    28 1   
    53    27    51 1   
    54    27    52 1   
    55    28    29 1   
    56    28    53 1   
    57    28    54 1   
    58    29    55 1   
    59    29    56 1   
    60    30    58 1   
    61    31    58 1   
@<TRIPOS>SUBSTRUCTURE
     1 G93         1 TEMP              0 ****  ****    0 ROOT
