@<TRIPOS>MOLECULE
G93
   58    61     1     0     0
SMALL
No Charge or Current Charge


@<TRIPOS>ATOM
      1 C3          -2.8870    -2.3470    -0.1030 cg         1 G93      -0.192000
      2 N2           0.2020     1.2270    -0.2770 na         1 G93      -0.127600
      3 N3          -2.0190     0.5830    -0.3410 nc         1 G93      -0.580100
      4 C2          -1.5230    -1.8950    -0.0520 ca         1 G93       0.496000
      5 N1          -0.5830    -2.8580     0.1340 nb         1 G93      -0.628000
      6 C1          -1.1830    -0.5200    -0.1790 ca         1 G93       0.067400
      7 C17         -2.8950     3.3820    -0.6240 cc         1 G93       0.514900
      8 N5          -3.0770     4.6670    -0.6850 nd         1 G93      -0.439300
      9 O3          -1.7360     5.1530    -0.5950 os         1 G93       0.115600
     10 N4          -0.7890     4.0740    -0.4760 nc         1 G93      -0.316300
     11 C16         -1.5810     3.0180    -0.5010 cd         1 G93       0.189700
     12 C15         -1.1580     1.6260    -0.3840 cd         1 G93       0.368800
     13 C13          1.4500     1.9840    -0.5240 c3         1 G93       0.081600
     14 C14          2.0920     2.5280     0.7670 c3         1 G93      -0.109100
     15 C4          -4.0450    -2.7170    -0.1480 c1         1 G93      -0.135100
     16 C5          -5.4580    -3.1190    -0.1880 c3         1 G93       0.276100
     17 C7          -6.1140    -2.9230     1.1970 c3         1 G93      -0.099100
     18 C6          -6.2120    -2.3330    -1.2820 c3         1 G93      -0.099100
     19 O1          -5.5210    -4.5030    -0.5160 oh         1 G93      -0.648000
     20 C12          0.1320    -0.1440    -0.1250 ca         1 G93      -0.086200
     21 C9           1.1400    -1.1100     0.0870 ca         1 G93       0.121100
     22 C8           0.7170    -2.4640     0.2050 ca         1 G93       0.246900
     23 C10          3.5160    -1.6760     0.4480 c3         1 G93       0.167600
     24 C11          4.8660    -0.9160     0.5470 c6         1 G93      -0.067700
     25 C18          5.2110    -0.1700    -0.7720 c6         1 G93       0.167800
     26 N7           6.5130     0.5360    -0.6770 n7         1 G93      -0.865400
     27 C19          7.6370    -0.3690    -0.3380 c6         1 G93       0.158800
     28 C20          7.3710    -1.1130     0.9930 c6         1 G93      -0.073400
     29 C21          6.0230    -1.8740     0.9440 c6         1 G93      -0.073400
     30 HN6         -4.9040     3.0710    -0.4750 hn         1 G93       0.502000
     31 HN6A        -3.9240     1.6340    -0.4680 hn         1 G93       0.502000
     32 H13          2.1660     1.3360    -1.0420 h1         1 G93       0.073200
     33 H13A         1.2500     2.8110    -1.2130 h1         1 G93       0.073200
     34 H14          1.4110     3.2170     1.2800 hc         1 G93       0.053033
     35 H14A         2.3360     1.7100     1.4550 hc         1 G93       0.053033
     36 H14B         3.0170     3.0670     0.5340 hc         1 G93       0.053033
     37 H7          -6.0940    -1.8660     1.4910 hc         1 G93       0.047533
     38 H7A         -7.1610    -3.2490     1.1810 hc         1 G93       0.047533
     39 H7B         -5.5900    -3.5000     1.9690 hc         1 G93       0.047533
     40 H6          -5.7590    -2.4980    -2.2680 hc         1 G93       0.047533
     41 H6A         -7.2610    -2.6480    -1.3340 hc         1 G93       0.047533
     42 H6B         -6.1910    -1.2560    -1.0730 hc         1 G93       0.047533
     43 HO1         -4.7870    -4.9290    -0.0240 ho         1 G93       0.447000
     44 H8           1.4340    -3.2670     0.3660 h4         1 G93       0.027100
     45 H10          3.3350    -2.2030     1.3940 h1         1 G93       0.042700
     46 H10A         3.5770    -2.4180    -0.3590 h1         1 G93       0.042700
     47 H11          4.7420    -0.1700     1.3450 hc         1 G93       0.076700
     48 H18          5.2470    -0.8900    -1.6030 h1         1 G93       0.032700
     49 H18A         4.4240     0.5630    -1.0030 h1         1 G93       0.032700
     50 HN7          6.7130     0.9870    -1.5800 hn         1 G93       0.415000
     51 H19          7.7720    -1.1030    -1.1470 h1         1 G93       0.031200
     52 H19A         8.5660     0.2130    -0.2570 h1         1 G93       0.031200
     53 H20          8.1920    -1.8140     1.1970 hc         1 G93       0.050700
     54 H20A         7.3610    -0.3920     1.8210 hc         1 G93       0.050700
     55 H21          5.8200    -2.3330     1.9210 hc         1 G93       0.040700
     56 H21A         6.0930    -2.6970     0.2180 hc         1 G93       0.040700
     57 O2           2.4650    -0.7290     0.1930 os         1 G93      -0.347100
     58 N6          -4.0210     2.6230    -0.6980 nv         1 G93      -1.040900
@<TRIPOS>BOND
     1     1     4 1   
     2     1    15 3   
     3     2    12 1   
     4     2    13 1   
     5     2    20 1   
     6     3     6 1   
     7     3    12 2   
     8     4     5 ar  
     9     4     6 ar  
    10     5    22 ar  
    11     6    20 ar  
    12     7     8 2   
    13     7    11 1   
    14     7    58 1   
    15     8     9 1   
    16     9    10 1   
    17    10    11 2   
    18    11    12 1   
    19    13    14 1   
    20    13    32 1   
    21    13    33 1   
    22    14    34 1   
    23    14    35 1   
    24    14    36 1   
    25    15    16 1   
    26    16    17 1   
    27    16    18 1   
    28    16    19 1   
    29    17    37 1   
    30    17    38 1   
    31    17    39 1   
    32    18    40 1   
    33    18    41 1   
    34    18    42 1   
    35    19    43 1   
    36    20    21 ar  
    37    21    22 ar  
    38    21    57 1   
    39    22    44 1   
    40    23    24 1   
    41    23    45 1   
    42    23    46 1   
    43    23    57 1   
    44    24    25 1   
    45    24    29 1   
    46    24    47 1   
    47    25    26 1   
    48    25    48 1   
    49    25    49 1   
    50    26    27 1   
    51    26    50 1   
    52    27    28 1   
    53    27    51 1   
    54    27    52 1   
    55    28    29 1   
    56    28    53 1   
    57    28    54 1   
    58    29    55 1   
    59    29    56 1   
    60    30    58 1   
    61    31    58 1   
@<TRIPOS>SUBSTRUCTURE
     1 G93         1 TEMP              0 ****  ****    0 ROOT
