@<TRIPOS>MOLECULE
G94
   50    52     1     0     0
SMALL
No Charge or Current Charge


@<TRIPOS>ATOM
      1 N1          -6.4450     1.9500    -0.6820 na         1 G94      -0.924200
      2 C2          -7.6160     2.1470    -0.0380 cc         1 G94       0.891100
      3 N3          -8.2500     1.2370     0.6210 nd         1 G94      -0.797100
      4 C4          -7.7810    -0.0630     0.7350 c          1 G94       0.766100
      5 N5          -4.7500     0.2510    -1.1960 na         1 G94      -0.126000
      6 C6          -4.5990    -1.1100    -0.8710 cc         1 G94      -0.159300
      7 C7          -5.7030    -1.4470    -0.1050 cd         1 G94      -0.096000
      8 C8          -6.5290    -0.3050     0.0430 cd         1 G94      -0.276600
      9 C9          -5.9270     0.6750    -0.6270 cc         1 G94       0.229000
     10 O10         -8.4000    -0.9010     1.3710 o          1 G94      -0.576100
     11 N11         -8.1070     3.3420    -0.1250 nv         1 G94      -1.047200
     12 S12          1.3070    -0.9170    -0.4610 ss         1 G94       0.218000
     13 C13          2.3960    -1.3570     0.8510 cc         1 G94      -0.204600
     14 C14          1.9670    -2.4950     1.4940 cd         1 G94      -0.121000
     15 C15          0.7670    -3.0270     0.9510 cd         1 G94      -0.138000
     16 C16          0.2710    -2.3020    -0.1050 cc         1 G94      -0.255300
     17 O18          4.3640    -0.9250     2.1290 o          1 G94      -0.629100
     18 N19          3.8370     0.5080     0.4260 ns         1 G94      -0.418900
     19 C20          4.9970     1.4270     0.5320 c3         1 G94      -0.051300
     20 C21          6.1090     1.0910    -0.4970 c3         1 G94      -0.054400
     21 C22          6.7440    -0.3150    -0.3300 c3         1 G94      -0.202400
     22 C23          7.9070    -0.4920    -1.3250 c          1 G94       0.712000
     23 O24          9.0230    -0.1380    -0.9790 o          1 G94      -0.761000
     24 O25          7.6560    -0.9330    -2.4360 o          1 G94      -0.761000
     25 C26          4.5200     2.9040     0.3840 c          1 G94       0.717000
     26 O27          3.7860     3.1910    -0.5520 o          1 G94      -0.740500
     27 O28          4.8230     3.7000     1.2630 o          1 G94      -0.740500
     28 C29         -3.4430    -1.9700    -1.3030 c3         1 G94      -0.013100
     29 C30         -2.1600    -1.6920    -0.4910 c3         1 G94      -0.079400
     30 C31         -0.9690    -2.5790    -0.9110 c3         1 G94       0.008900
     31 H2          -4.1170     0.8170    -1.7460 hn         1 G94       0.356000
     32 H3          -5.8990    -2.4290     0.3170 ha         1 G94       0.145000
     33 H4          -7.9580     3.7870    -1.0180 hn         1 G94       0.491000
     34 H5          -9.0580     3.3860     0.2110 hn         1 G94       0.491000
     35 H6           2.4920    -2.9440     2.3320 ha         1 G94       0.147000
     36 H7           0.2870    -3.9210     1.3360 ha         1 G94       0.111000
     37 H8           3.1460     0.7070    -0.2860 hn         1 G94       0.294500
     38 H9           5.4220     1.3340     1.5390 h1         1 G94       0.059700
     39 H10          5.7030     1.1860    -1.5130 hc         1 G94       0.049700
     40 H11          6.9000     1.8460    -0.4070 hc         1 G94       0.049700
     41 H12          7.1130    -0.3560     0.7020 hc         1 G94       0.011200
     42 H13          5.9480    -1.0380    -0.5440 hc         1 G94       0.011200
     43 H16         -3.7130    -3.0280    -1.1980 hc         1 G94       0.049700
     44 H17         -3.2390    -1.8060    -2.3690 hc         1 G94       0.049700
     45 H18         -1.8820    -0.6380    -0.6040 hc         1 G94       0.053200
     46 H19         -2.3680    -1.8540     0.5740 hc         1 G94       0.053200
     47 H20         -0.7580    -2.4190    -1.9760 hc         1 G94       0.039200
     48 H21         -1.2500    -3.6340    -0.8050 hc         1 G94       0.039200
     49 H22         -5.9830     2.7210    -1.1410 hn         1 G94       0.503000
     50 C17          3.6170    -0.6040     1.2130 c          1 G94       0.622700
@<TRIPOS>BOND
     1     1     2 1   
     2     1     9 1   
     3     1    49 1   
     4     2     3 2   
     5     2    11 1   
     6     3     4 1   
     7     4     8 1   
     8     4    10 2   
     9     5     6 1   
    10     5     9 1   
    11     5    31 1   
    12     6     7 2   
    13     6    28 1   
    14     7     8 1   
    15     7    32 1   
    16     8     9 2   
    17    11    33 1   
    18    11    34 1   
    19    12    13 1   
    20    12    16 1   
    21    13    14 2   
    22    13    50 1   
    23    14    15 1   
    24    14    35 1   
    25    15    16 2   
    26    15    36 1   
    27    16    30 1   
    28    17    50 2   
    29    18    19 1   
    30    18    37 1   
    31    18    50 1   
    32    19    20 1   
    33    19    25 1   
    34    19    38 1   
    35    20    21 1   
    36    20    39 1   
    37    20    40 1   
    38    21    22 1   
    39    21    41 1   
    40    21    42 1   
    41    22    23 1   
    42    22    24 1   
    43    25    26 1   
    44    25    27 1   
    45    28    29 1   
    46    28    43 1   
    47    28    44 1   
    48    29    30 1   
    49    29    45 1   
    50    29    46 1   
    51    30    47 1   
    52    30    48 1   
@<TRIPOS>SUBSTRUCTURE
     1 G94         1 TEMP              0 ****  ****    0 ROOT
