@<TRIPOS>MOLECULE
G94
   50    52     1     0     0
SMALL
abcg2


@<TRIPOS>ATOM
      1 N1          -5.8740     1.9710    -1.0660 na         1 G94      -0.924200
      2 C2          -7.0900     2.3620    -0.5920 cc         1 G94       0.891100
      3 N3          -7.9210     1.5660     0.0250 nd         1 G94      -0.797100
      4 C4          -7.6260     0.2420     0.2630 c          1 G94       0.766100
      5 N5          -4.3910     0.0510    -1.2350 na         1 G94      -0.126000
      6 C6          -4.4570    -1.2760    -0.8340 cc         1 G94      -0.159300
      7 C7          -5.6530    -1.4670    -0.2060 cd         1 G94      -0.096000
      8 C8          -6.3480    -0.2200    -0.2200 cd         1 G94      -0.276600
      9 C9          -5.5230     0.6710    -0.8650 cc         1 G94       0.229000
     10 O10         -8.4280    -0.4790     0.8540 o          1 G94      -0.576100
     11 N11         -7.4050     3.6610    -0.7530 nv         1 G94      -1.047200
     12 S12          1.3870    -1.4380    -0.1530 ss         1 G94       0.218000
     13 C13          2.3380    -1.6110     1.2780 cc         1 G94      -0.204600
     14 C14          1.7800    -2.5390     2.1100 cd         1 G94      -0.121000
     15 C15          0.5880    -3.1030     1.5970 cd         1 G94      -0.138000
     16 C16          0.2390    -2.6060     0.3730 cc         1 G94      -0.255300
     17 O18          4.2330    -1.1190     2.5670 o          1 G94      -0.629100
     18 N19          3.9830     0.0180     0.6310 ns         1 G94      -0.418900
     19 C20          5.1050     0.9070     0.8420 c3         1 G94      -0.051300
     20 C21          5.5990     1.4300    -0.5070 c3         1 G94      -0.054400
     21 C22          6.1220     0.3350    -1.4230 c3         1 G94      -0.202400
     22 C23          6.6470     0.8010    -2.7920 c          1 G94       0.712000
     23 O24          6.6570     2.0250    -3.0290 o          1 G94      -0.761000
     24 O25          7.0320    -0.1030    -3.5650 o          1 G94      -0.761000
     25 C26          4.7630     2.0760     1.8030 c          1 G94       0.717000
     26 O27          3.5710     2.2480     2.1050 o          1 G94      -0.740500
     27 O28          5.7430     2.7550     2.1710 o          1 G94      -0.740500
     28 C29         -3.3250    -2.2130    -1.0710 c3         1 G94      -0.013100
     29 C30         -2.0800    -1.8730    -0.2500 c3         1 G94      -0.079400
     30 C31         -0.9740    -2.9130    -0.4400 c3         1 G94       0.008900
     31 H2          -3.6230     0.4710    -1.7360 hn         1 G94       0.356000
     32 H3          -5.9950    -2.3970     0.2200 ha         1 G94       0.145000
     33 H4          -6.9250     4.2220    -1.4370 hn         1 G94       0.491000
     34 H5          -8.3580     3.9200    -0.5640 hn         1 G94       0.491000
     35 H6           2.2150    -2.8110     3.0620 ha         1 G94       0.147000
     36 H7           0.0010    -3.8500     2.1120 ha         1 G94       0.111000
     37 H8           3.3330     0.2970    -0.0880 hn         1 G94       0.294500
     38 H9           5.9090     0.3240     1.2990 h1         1 G94       0.059700
     39 H10          4.7890     1.9810    -1.0000 hc         1 G94       0.049700
     40 H11          6.3840     2.1610    -0.3150 hc         1 G94       0.049700
     41 H12          6.9310    -0.2040    -0.9150 hc         1 G94       0.011200
     42 H13          5.3480    -0.4210    -1.5920 hc         1 G94       0.011200
     43 H16         -3.6680    -3.2180    -0.8180 hc         1 G94       0.049700
     44 H17         -3.0640    -2.2340    -2.1350 hc         1 G94       0.049700
     45 H18         -1.7030    -0.8850    -0.5300 hc         1 G94       0.053200
     46 H19         -2.3460    -1.8180     0.8080 hc         1 G94       0.053200
     47 H20         -0.7150    -2.9850    -1.4990 hc         1 G94       0.039200
     48 H21         -1.3440    -3.8970    -0.1430 hc         1 G94       0.039200
     49 H22         -5.2510     2.6260    -1.5150 hn         1 G94       0.503000
     50 C17          3.5900    -0.8720     1.5520 c          1 G94       0.622700
@<TRIPOS>BOND
     1     1     2 1   
     2     1     9 1   
     3     1    49 1   
     4     2     3 2   
     5     2    11 1   
     6     3     4 1   
     7     4     8 1   
     8     4    10 2   
     9     5     6 1   
    10     5     9 1   
    11     5    31 1   
    12     6     7 2   
    13     6    28 1   
    14     7     8 1   
    15     7    32 1   
    16     8     9 2   
    17    11    33 1   
    18    11    34 1   
    19    12    13 1   
    20    12    16 1   
    21    13    14 2   
    22    13    50 1   
    23    14    15 1   
    24    14    35 1   
    25    15    16 2   
    26    15    36 1   
    27    16    30 1   
    28    17    50 2   
    29    18    19 1   
    30    18    37 1   
    31    18    50 1   
    32    19    20 1   
    33    19    25 1   
    34    19    38 1   
    35    20    21 1   
    36    20    39 1   
    37    20    40 1   
    38    21    22 1   
    39    21    41 1   
    40    21    42 1   
    41    22    23 1   
    42    22    24 1   
    43    25    26 1   
    44    25    27 1   
    45    28    29 1   
    46    28    43 1   
    47    28    44 1   
    48    29    30 1   
    49    29    45 1   
    50    29    46 1   
    51    30    47 1   
    52    30    48 1   
@<TRIPOS>SUBSTRUCTURE
     1 G94         1 TEMP              0 ****  ****    0 ROOT
