@<TRIPOS>MOLECULE
G95
   44    47     1     0     0
SMALL
No Charge or Current Charge


@<TRIPOS>ATOM
      1 C1          -4.0310     0.5320     2.1980 c3         1 G95       0.139800
      2 C2          -3.7590     0.6070     0.6650 c3         1 G95       0.160000
      3 C3          -1.7040     1.8910    -0.0430 c          1 G95       0.644700
      4 C4          -0.2550     1.7330    -0.2710 cc         1 G95      -0.294600
      5 C5           0.5750     2.7510    -0.6870 cd         1 G95      -0.064000
      6 C9           4.2980     0.6850    -1.7240 ca         1 G95      -0.179000
      7 C10          5.5540     0.0480    -1.8080 ca         1 G95       0.357900
      8 C8           3.4430     0.4010    -0.6400 ca         1 G95       0.067000
      9 C7           2.1250     1.0240    -0.5230 cc         1 G95      -0.143000
     10 C6           1.9300     2.3470    -0.8350 cd         1 G95      -0.133000
     11 S1           0.6310     0.2230    -0.0510 ss         1 G95       0.227000
     12 O1          -2.3020     2.9440    -0.2060 o          1 G95      -0.581100
     13 N1          -3.6360     1.7570     2.9390 n8         1 G95      -0.992200
     14 C12          4.2790    -1.9270     2.1140 cc         1 G95      -0.149100
     15 C13          3.3970    -1.0370     1.5290 cd         1 G95      -0.240200
     16 C14          3.9430    -0.5210     0.2940 ca         1 G95      -0.127800
     17 C15         -4.3290    -0.5980    -0.0820 ca         1 G95      -0.102300
     18 N2          -2.3270     0.7370     0.3670 ns         1 G95      -0.501900
     19 C16         -5.2160    -0.4020    -1.1610 ca         1 G95      -0.096500
     20 C17         -5.7420    -1.5020    -1.8600 ca         1 G95      -0.109500
     21 C18         -5.3830    -2.8080    -1.4890 ca         1 G95      -0.106000
     22 N3           6.0030    -0.8420    -0.8870 nb         1 G95      -0.677000
     23 C19         -4.4960    -3.0130    -0.4200 ca         1 G95      -0.109500
     24 C20         -3.9690    -1.9140     0.2800 ca         1 G95      -0.096500
     25 C11          5.1830    -1.1050     0.1460 ca         1 G95       0.368500
     26 N4           5.3760    -1.9470     1.2260 na         1 G95      -0.323400
     27 H1          -5.1030     0.3600     2.3640 h1         1 G95       0.037200
     28 H1A         -3.4830    -0.3200     2.6240 h1         1 G95       0.037200
     29 H2          -4.2760     1.5030     0.2960 h1         1 G95       0.097700
     30 H5           0.2320     3.7640    -0.8840 ha         1 G95       0.156000
     31 H10          6.2220     0.2560    -2.6430 h4         1 G95       0.021100
     32 H6           2.7210     3.0190    -1.1540 ha         1 G95       0.141000
     33 HN1         -3.7280     1.5860     3.9480 hn         1 G95       0.395500
     34 HN1A        -2.6290     1.9120     2.8080 hn         1 G95       0.395500
     35 H12          4.2270    -2.5060     3.0350 h4         1 G95       0.217000
     36 H13          2.4400    -0.7590     1.9640 ha         1 G95       0.211000
     37 HN2         -1.7480    -0.0860     0.4530 hn         1 G95       0.306500
     38 H16         -5.5000     0.6050    -1.4610 ha         1 G95       0.110500
     39 H17         -6.4260    -1.3420    -2.6900 ha         1 G95       0.112500
     40 H18         -5.7890    -3.6600    -2.0310 ha         1 G95       0.112000
     41 H19         -4.2140    -4.0250    -0.1340 ha         1 G95       0.112500
     42 H20         -3.2790    -2.0900     1.1020 ha         1 G95       0.110500
     43 HN4          6.2170    -2.4980     1.3460 hn         1 G95       0.363000
     44 H9           3.9980     1.3780    -2.5030 ha         1 G95       0.126000
@<TRIPOS>BOND
     1     1     2 1   
     2     1    13 1   
     3     1    27 1   
     4     1    28 1   
     5     2    17 1   
     6     2    18 1   
     7     2    29 1   
     8     3     4 1   
     9     3    12 2   
    10     3    18 1   
    11     4     5 2   
    12     4    11 1   
    13     5    10 1   
    14     5    30 1   
    15     6     7 ar  
    16     6     8 ar  
    17     6    44 1   
    18     7    22 ar  
    19     7    31 1   
    20     8     9 1   
    21     8    16 ar  
    22     9    10 2   
    23     9    11 1   
    24    10    32 1   
    25    13    33 1   
    26    13    34 1   
    27    14    15 2   
    28    14    26 1   
    29    14    35 1   
    30    15    16 1   
    31    15    36 1   
    32    16    25 ar  
    33    17    19 ar  
    34    17    24 ar  
    35    18    37 1   
    36    19    20 ar  
    37    19    38 1   
    38    20    21 ar  
    39    20    39 1   
    40    21    23 ar  
    41    21    40 1   
    42    22    25 ar  
    43    23    24 ar  
    44    23    41 1   
    45    24    42 1   
    46    25    26 1   
    47    26    43 1   
@<TRIPOS>SUBSTRUCTURE
     1 G95         1 TEMP              0 ****  ****    0 ROOT
