@<TRIPOS>MOLECULE
G95
   44    47     1     0     0
SMALL
bcc


@<TRIPOS>ATOM
      1 C1          -3.7190    -0.2250     2.2880 c3         1 G95       0.139800
      2 C2          -3.5750     0.3950     0.8980 c3         1 G95       0.160000
      3 C3          -1.6880     1.2350    -0.4140 c          1 G95       0.711700
      4 C4          -0.2460     1.1210    -0.7210 cc         1 G95      -0.149700
      5 C5           0.3730     1.7310    -1.7770 cd         1 G95      -0.082000
      6 C9           4.4060    -0.0250    -1.6490 ca         1 G95      -0.262300
      7 C10          5.7060    -0.4860    -1.4450 ca         1 G95       0.423200
      8 C8           3.5490     0.1850    -0.5710 ca         1 G95       0.067000
      9 C7           2.1930     0.6670    -0.8050 cc         1 G95       0.001900
     10 C6           1.7570     1.4680    -1.8290 cd         1 G95      -0.151000
     11 S1           0.8830     0.2310     0.2240 ss         1 G95      -0.062800
     12 O1          -2.3770     2.0630    -0.9880 o          1 G95      -0.581100
     13 N1          -3.0310     0.5670     3.2910 n8         1 G95      -0.881800
     14 C12          4.6370    -0.4230     2.8430 cc         1 G95      -0.099100
     15 C13          3.6040    -0.0070     2.0530 cd         1 G95      -0.190200
     16 C14          4.0660    -0.0880     0.7040 ca         1 G95      -0.193100
     17 C15         -4.4520    -0.3250    -0.1020 ca         1 G95      -0.102300
     18 N2          -2.1750     0.3970     0.5220 ns         1 G95      -0.568900
     19 C16         -5.7540     0.1190    -0.3140 ca         1 G95      -0.114500
     20 C17         -6.6010    -0.5520    -1.1850 ca         1 G95      -0.127500
     21 C18         -6.1530    -1.6810    -1.8590 ca         1 G95      -0.124000
     22 N3           6.2200    -0.7620    -0.2560 nb         1 G95      -0.677000
     23 C19         -4.8560    -2.1310    -1.6530 ca         1 G95      -0.127500
     24 C20         -4.0110    -1.4560    -0.7810 ca         1 G95      -0.114500
     25 C11          5.4030    -0.5580     0.7630 ca         1 G95       0.433800
     26 N4           5.7110    -0.7570     2.0710 na         1 G95      -0.273100
     27 H1          -4.7830    -0.2430     2.5300 h1         1 G95       0.037200
     28 H1A         -3.3990    -1.2770     2.2400 h1         1 G95       0.037200
     29 H2          -3.9010     1.4350     0.9670 h1         1 G95       0.097700
     30 H5          -0.1500     2.3490    -2.4920 ha         1 G95       0.174000
     31 H10          6.3510    -0.6460    -2.3010 h4         1 G95       0.021100
     32 H6           2.4140     1.8720    -2.5870 ha         1 G95       0.159000
     33 HN1         -3.2700     0.2190     4.2100 hn         1 G95       0.340300
     34 HN1A        -2.0300     0.4450     3.2070 hn         1 G95       0.340300
     35 H12          4.6870    -0.5050     3.9160 h4         1 G95       0.167000
     36 H13          2.6460     0.3290     2.4140 ha         1 G95       0.161000
     37 HN2         -1.6090    -0.3720     0.8470 hn         1 G95       0.306500
     38 H16         -6.1070     1.0030     0.2050 ha         1 G95       0.128500
     39 H17         -7.6090    -0.1890    -1.3430 ha         1 G95       0.130500
     40 H18         -6.8090    -2.2030    -2.5430 ha         1 G95       0.130000
     41 H19         -4.4960    -3.0080    -2.1760 ha         1 G95       0.130500
     42 H20         -2.9990    -1.8170    -0.6410 ha         1 G95       0.128500
     43 HN4          6.6010    -1.0810     2.4160 hn         1 G95       0.312700
     44 H9           4.0660     0.1450    -2.6610 ha         1 G95       0.144000
@<TRIPOS>BOND
     1     1     2 1   
     2     1    13 1   
     3     1    27 1   
     4     1    28 1   
     5     2    17 1   
     6     2    18 1   
     7     2    29 1   
     8     3     4 1   
     9     3    12 2   
    10     3    18 1   
    11     4     5 2   
    12     4    11 1   
    13     5    10 1   
    14     5    30 1   
    15     6     7 ar  
    16     6     8 ar  
    17     6    44 1   
    18     7    22 ar  
    19     7    31 1   
    20     8     9 1   
    21     8    16 ar  
    22     9    10 2   
    23     9    11 1   
    24    10    32 1   
    25    13    33 1   
    26    13    34 1   
    27    14    15 2   
    28    14    26 1   
    29    14    35 1   
    30    15    16 1   
    31    15    36 1   
    32    16    25 ar  
    33    17    19 ar  
    34    17    24 ar  
    35    18    37 1   
    36    19    20 ar  
    37    19    38 1   
    38    20    21 ar  
    39    20    39 1   
    40    21    23 ar  
    41    21    40 1   
    42    22    25 ar  
    43    23    24 ar  
    44    23    41 1   
    45    24    42 1   
    46    25    26 1   
    47    26    43 1   
@<TRIPOS>SUBSTRUCTURE
     1 G95         1 TEMP              0 ****  ****    0 ROOT
