@<TRIPOS>MOLECULE
G96
   61    64     1     0     0
SMALL
bcc


@<TRIPOS>ATOM
      1 N1           5.5770     2.6060    -0.2450 nc         1 G96      -0.317300
      2 N3           5.9470    -0.8850    -0.1530 nv         1 G96      -0.934500
      3 C4          -9.4660     1.2340    -0.3650 ca         1 G96      -0.128000
      4 C5          -8.6930     0.9430    -1.4820 ca         1 G96      -0.129000
      5 C6          -7.4240     0.4010    -1.3280 ca         1 G96      -0.115000
      6 C7          -3.0690    -0.0110     0.0220 c3         1 G96       0.105400
      7 C8           6.0780     0.4510    -0.2290 cd         1 G96       0.516900
      8 C10         -0.7940     0.6940    -0.0400 ca         1 G96       0.673600
      9 C15          1.4390     1.3810    -0.1150 ca         1 G96      -0.011200
     10 C17          1.4820    -3.4850     0.0280 c1         1 G96      -0.112100
     11 C20          3.3730    -4.9690     0.4790 c3         1 G96      -0.099600
     12 C22          2.9020     4.1210     1.2000 c3         1 G96      -0.113100
     13 C24         -5.5180    -0.4200     0.0870 c3         1 G96      -0.024100
     14 O3           1.0800    -5.6290     0.9410 oh         1 G96      -0.583800
     15 C18          1.9050    -4.8970     0.0570 c3         1 G96       0.248900
     16 C19          1.7120    -5.5080    -1.3290 c3         1 G96      -0.099600
     17 C12          0.8240    -0.9400    -0.0320 ca         1 G96       0.652300
     18 N4          -0.4600    -0.5890    -0.0130 nb         1 G96      -0.750000
     19 C14          1.8200     0.0300    -0.0830 ca         1 G96      -0.068900
     20 N6           3.1790    -0.0750    -0.1120 nc         1 G96      -0.564100
     21 C16          3.6090     1.1570    -0.1600 cd         1 G96       0.370800
     22 N5           2.6040     2.0880    -0.1770 na         1 G96      -0.126300
     23 C9           5.0270     1.4340    -0.2060 cd         1 G96       0.188700
     24 O2           6.8860     2.4150    -0.2960 os         1 G96       0.116600
     25 N2           7.2080     1.0940    -0.2900 nc         1 G96      -0.439300
     26 C11          0.1100     1.7570    -0.0910 ca         1 G96      -0.285300
     27 C23         -4.4340     0.6630     0.1040 c3         1 G96       0.162500
     28 N7          -4.6130     1.5240     1.2570 n8         1 G96      -0.881800
     29 C1          -6.9020     0.1420    -0.0610 ca         1 G96      -0.067300
     30 C3          -8.9590     0.9760     0.9020 ca         1 G96      -0.129000
     31 C2          -7.6880     0.4380     1.0500 ca         1 G96      -0.115000
     32 HN3          5.0240    -1.2540    -0.3240 hn         1 G96       0.448300
     33 HN3A         6.7260    -1.4550    -0.4410 hn         1 G96       0.448300
     34 H4         -10.4570     1.6540    -0.4830 ha         1 G96       0.128000
     35 H5          -9.0800     1.1330    -2.4740 ha         1 G96       0.128000
     36 H6          -6.8310     0.1720    -2.2060 ha         1 G96       0.126000
     37 H7          -2.9980    -0.6360    -0.8740 h1         1 G96       0.054200
     38 H7A         -2.9110    -0.6580     0.8910 h1         1 G96       0.054200
     39 H20          3.5160    -4.5610     1.4820 hc         1 G96       0.049033
     40 H20A         3.7070    -6.0070     0.4770 hc         1 G96       0.049033
     41 H20B         4.0050    -4.4030    -0.2050 hc         1 G96       0.049033
     42 H21          1.7780     3.9150    -0.6300 h1         1 G96       0.070700
     43 H21A         3.5050     3.8320    -0.8580 h1         1 G96       0.070700
     44 H22          2.9410     5.2080     1.1350 hc         1 G96       0.052700
     45 H22A         2.0830     3.8520     1.8660 hc         1 G96       0.052700
     46 H22B         3.8370     3.7800     1.6440 hc         1 G96       0.052700
     47 H24         -5.3160    -1.1110    -0.7350 hc         1 G96       0.048200
     48 H24A        -5.4470    -1.0070     1.0080 hc         1 G96       0.048200
     49 HO3          1.2610    -5.3400     1.8430 ho         1 G96       0.410000
     50 H19          2.3060    -4.9750    -2.0690 hc         1 G96       0.049033
     51 H19A         2.0330    -6.5510    -1.3190 hc         1 G96       0.049033
     52 H19B         0.6670    -5.4670    -1.6350 hc         1 G96       0.049033
     53 H11         -0.2300     2.7840    -0.1090 ha         1 G96       0.164000
     54 H23         -4.5570     1.2810    -0.7930 h1         1 G96       0.075700
     55 HN7         -4.5140     0.9840     2.1100 hn         1 G96       0.344800
     56 HN7A        -3.8910     2.2320     1.2840 hn         1 G96       0.344800
     57 H3          -9.5550     1.1940     1.7800 ha         1 G96       0.128000
     58 H2          -7.3030     0.2390     2.0430 ha         1 G96       0.126000
     59 O1          -2.0890     1.0200    -0.0190 os         1 G96      -0.449100
     60 C13          1.1610    -2.3240    -0.0010 cg         1 G96      -0.212000
     61 C21          2.7000     3.5410    -0.1870 c3         1 G96       0.051300
@<TRIPOS>BOND
     1     1    23 2   
     2     1    24 1   
     3     2     7 1   
     4     2    32 1   
     5     2    33 1   
     6     3     4 ar  
     7     3    30 ar  
     8     3    34 1   
     9     4     5 ar  
    10     4    35 1   
    11     5    29 ar  
    12     5    36 1   
    13     6    27 1   
    14     6    37 1   
    15     6    38 1   
    16     6    59 1   
    17     7    23 1   
    18     7    25 2   
    19     8    18 ar  
    20     8    26 ar  
    21     8    59 1   
    22     9    19 ar  
    23     9    22 1   
    24     9    26 ar  
    25    10    15 1   
    26    10    60 3   
    27    11    15 1   
    28    11    39 1   
    29    11    40 1   
    30    11    41 1   
    31    12    44 1   
    32    12    45 1   
    33    12    46 1   
    34    12    61 1   
    35    13    27 1   
    36    13    29 1   
    37    13    47 1   
    38    13    48 1   
    39    14    15 1   
    40    14    49 1   
    41    15    16 1   
    42    16    50 1   
    43    16    51 1   
    44    16    52 1   
    45    17    18 ar  
    46    17    19 ar  
    47    17    60 1   
    48    19    20 1   
    49    20    21 2   
    50    21    22 1   
    51    21    23 1   
    52    22    61 1   
    53    24    25 1   
    54    26    53 1   
    55    27    28 1   
    56    27    54 1   
    57    28    55 1   
    58    28    56 1   
    59    29    31 ar  
    60    30    31 ar  
    61    30    57 1   
    62    31    58 1   
    63    42    61 1   
    64    43    61 1   
@<TRIPOS>SUBSTRUCTURE
     1 G96         1 TEMP              0 ****  ****    0 ROOT
