@<TRIPOS>MOLECULE
G96
   61    64     1     0     0
SMALL
No Charge or Current Charge


@<TRIPOS>ATOM
      1 N1           5.6000     2.7840    -0.4760 nc         1 G96      -0.317300
      2 N3           6.1890    -0.7380    -0.4300 nv         1 G96      -1.044900
      3 C4          -9.6040     1.3550    -0.1070 ca         1 G96      -0.110000
      4 C5          -8.7600     1.2740    -1.2270 ca         1 G96      -0.111000
      5 C6          -7.4790     0.7090    -1.1040 ca         1 G96      -0.097000
      6 C7          -3.0960    -0.0870     0.0780 c3         1 G96       0.128600
      7 C8           6.2330     0.6230    -0.4670 cd         1 G96       0.516900
      8 C10         -0.7360     0.5800    -0.0870 ca         1 G96       0.608300
      9 C15          1.5550     1.2870    -0.2480 ca         1 G96      -0.011200
     10 C17          1.5590    -3.6010    -0.1930 c1         1 G96      -0.112100
     11 C20          2.1490    -5.4990     1.2850 c3         1 G96      -0.099600
     12 C22          2.7770     4.1910     1.0370 c3         1 G96      -0.113100
     13 C24         -5.6430    -0.4020     0.2670 c3         1 G96      -0.024100
     14 O3           0.8970    -5.7860    -0.7490 oh         1 G96      -0.646000
     15 C18          1.9490    -5.0190    -0.1690 c3         1 G96       0.272100
     16 C19          3.2230    -5.2420    -1.0130 c3         1 G96      -0.099600
     17 C12          0.9390    -1.0220    -0.1840 ca         1 G96       0.587000
     18 N4          -0.3820    -0.7260    -0.1000 nb         1 G96      -0.750000
     19 C14          1.9410    -0.0180    -0.2570 ca         1 G96      -0.003600
     20 N6           3.3310    -0.1320    -0.3360 nc         1 G96      -0.564100
     21 C16          3.7440     1.1580    -0.3660 cd         1 G96       0.370800
     22 N5           2.6670     2.0840    -0.3290 na         1 G96      -0.155600
     23 C9           5.1460     1.5440    -0.4330 cd         1 G96       0.188700
     24 O2           7.0180     2.5870    -0.5460 os         1 G96       0.116600
     25 N2           7.3950     1.2060    -0.5420 nc         1 G96      -0.439300
     26 C11          0.2000     1.6280    -0.1580 ca         1 G96      -0.202000
     27 C23         -4.4810     0.6180     0.1390 c3         1 G96       0.162500
     28 N7          -4.5210     1.6310     1.2270 n8         1 G96      -0.992200
     29 C1          -7.0310     0.2230     0.1410 ca         1 G96      -0.067300
     30 C3          -9.1660     0.8690     1.1370 ca         1 G96      -0.111000
     31 C2          -7.8850     0.3040     1.2600 ca         1 G96      -0.097000
     32 HN3          5.2750    -1.1760    -0.5420 hn         1 G96       0.503500
     33 HN3A         7.0010    -1.2550    -0.7550 hn         1 G96       0.503500
     34 H4         -10.5960     1.7920    -0.2020 ha         1 G96       0.110000
     35 H5          -9.0990     1.6470    -2.1910 ha         1 G96       0.110000
     36 H6          -6.8340     0.6470    -1.9780 ha         1 G96       0.108000
     37 H7          -3.0650    -0.7450    -0.8010 h1         1 G96       0.054200
     38 H7A         -2.9610    -0.7080     0.9740 h1         1 G96       0.054200
     39 H20          1.2360    -5.3620     1.8780 hc         1 G96       0.049033
     40 H20A         2.4120    -6.5630     1.3100 hc         1 G96       0.049033
     41 H20B         2.9580    -4.9400     1.7720 hc         1 G96       0.049033
     42 H21          1.6780     3.8830    -0.7990 h1         1 G96       0.070700
     43 H21A         3.4170     3.9370    -1.0260 h1         1 G96       0.070700
     44 H22          2.7350     5.2840     0.9680 hc         1 G96       0.052700
     45 H22A         1.9670     3.8570     1.6970 hc         1 G96       0.052700
     46 H22B         3.7330     3.9100     1.4930 hc         1 G96       0.052700
     47 H24         -5.5270    -1.1630    -0.5150 hc         1 G96       0.048200
     48 H24A        -5.5470    -0.9390     1.2190 hc         1 G96       0.048200
     49 HO3          0.0620    -5.4020    -0.4060 ho         1 G96       0.449000
     50 H19          4.0660    -4.6700    -0.6040 hc         1 G96       0.049033
     51 H19A         3.5040    -6.3020    -1.0200 hc         1 G96       0.049033
     52 H19B         3.0680    -4.9250    -2.0520 hc         1 G96       0.049033
     53 H11         -0.1390     2.6580    -0.1400 ha         1 G96       0.146000
     54 H23         -4.6050     1.1510    -0.8160 h1         1 G96       0.075700
     55 HN7         -4.4830     1.1480     2.1300 hn         1 G96       0.400000
     56 HN7A        -3.6280     2.1380     1.1970 hn         1 G96       0.400000
     57 H3          -9.8190     0.9310     2.0050 ha         1 G96       0.110000
     58 H2          -7.5550    -0.0690     2.2280 ha         1 G96       0.108000
     59 O1          -2.0640     0.9230    -0.0020 os         1 G96      -0.472300
     60 C13          1.2680    -2.4200    -0.1890 cg         1 G96      -0.212000
     61 C21          2.6300     3.5610    -0.3610 c3         1 G96       0.080600
@<TRIPOS>BOND
     1     1    23 2   
     2     1    24 1   
     3     2     7 1   
     4     2    32 1   
     5     2    33 1   
     6     3     4 ar  
     7     3    30 ar  
     8     3    34 1   
     9     4     5 ar  
    10     4    35 1   
    11     5    29 ar  
    12     5    36 1   
    13     6    27 1   
    14     6    37 1   
    15     6    38 1   
    16     6    59 1   
    17     7    23 1   
    18     7    25 2   
    19     8    18 ar  
    20     8    26 ar  
    21     8    59 1   
    22     9    19 ar  
    23     9    22 1   
    24     9    26 ar  
    25    10    15 1   
    26    10    60 3   
    27    11    15 1   
    28    11    39 1   
    29    11    40 1   
    30    11    41 1   
    31    12    44 1   
    32    12    45 1   
    33    12    46 1   
    34    12    61 1   
    35    13    27 1   
    36    13    29 1   
    37    13    47 1   
    38    13    48 1   
    39    14    15 1   
    40    14    49 1   
    41    15    16 1   
    42    16    50 1   
    43    16    51 1   
    44    16    52 1   
    45    17    18 ar  
    46    17    19 ar  
    47    17    60 1   
    48    19    20 1   
    49    20    21 2   
    50    21    22 1   
    51    21    23 1   
    52    22    61 1   
    53    24    25 1   
    54    26    53 1   
    55    27    28 1   
    56    27    54 1   
    57    28    55 1   
    58    28    56 1   
    59    29    31 ar  
    60    30    31 ar  
    61    30    57 1   
    62    31    58 1   
    63    42    61 1   
    64    43    61 1   
@<TRIPOS>SUBSTRUCTURE
     1 G96         1 TEMP              0 ****  ****    0 ROOT
