@<TRIPOS>MOLECULE
G97
   43    46     1     0     0
SMALL
No Charge or Current Charge


@<TRIPOS>ATOM
      1 CAH         24.1810    -2.2400   -21.3020 ca         1 G97      -0.063000
      2 CAE         24.7620    -3.3520   -21.9360 ca         1 G97      -0.133000
      3 CAD         24.9190    -4.5600   -21.2410 ca         1 G97      -0.093000
      4 CAF         24.4930    -4.6550   -19.9080 ca         1 G97      -0.133000
      5 CAI         23.9110    -3.5450   -19.2700 ca         1 G97      -0.063000
      6 CAW         23.7380    -2.3060   -19.9500 cp         1 G97      -0.152500
      7 C2          23.1140    -1.1130   -19.2670 cp         1 G97       0.249500
      8 N1          22.9870     0.0220   -19.9790 nb         1 G97      -0.250000
      9 N3          22.7200    -1.2520   -17.9850 nb         1 G97      -0.222000
     10 C4          22.1610    -0.1980   -17.3610 ca         1 G97       0.089000
     11 CAM         21.7390    -0.3110   -16.0250 ca         1 G97      -0.179000
     12 CAU         21.1520     0.7720   -15.3460 ca         1 G97       0.018000
     13 NAQ         20.7570     0.5640   -13.9960 ns         1 G97      -0.144000
     14 CAT         20.1640     1.3940   -13.0550 c          1 G97       0.613300
     15 OAB         19.8530     2.5620   -13.2550 o          1 G97      -0.578100
     16 CAC         19.9270     0.7310   -11.7350 ce         1 G97      -0.308200
     17 CAA         19.3620     1.3390   -10.6610 c2         1 G97      -0.220000
     18 CAK         20.9880     1.9930   -16.0310 ca         1 G97      -0.144000
     19 CAL         21.4030     2.1240   -17.3670 ca         1 G97      -0.050000
     20 C5          21.9920     1.0300   -18.0400 ca         1 G97      -0.204000
     21 C6          22.4330     1.0920   -19.3840 ca         1 G97       0.421900
     22 NAR         22.3100     2.2600   -20.1410 nu         1 G97      -0.886800
     23 CAV         22.6320     2.6170   -21.4180 cc         1 G97       0.494900
     24 CAJ         22.3640     3.9070   -21.8710 cc         1 G97      -0.272000
     25 CAG         22.7910     3.9630   -23.1640 cd         1 G97      -0.147000
     26 NAS         23.2990     2.6780   -23.4150 na         1 G97      -0.008200
     27 NAN         23.1930     1.8350   -22.3050 nd         1 G97      -0.503800
     28 HAH         24.0760    -1.3200   -21.8740 ha         1 G97       0.138500
     29 HAE         25.0910    -3.2750   -22.9700 ha         1 G97       0.110500
     30 HAD         25.3690    -5.4190   -21.7330 ha         1 G97       0.108000
     31 HAF         24.6130    -5.5900   -19.3660 ha         1 G97       0.110500
     32 HAI         23.5930    -3.6570   -18.2350 ha         1 G97       0.138500
     33 HAM         21.8720    -1.2590   -15.5080 ha         1 G97       0.130000
     34 HNAQ        20.9460    -0.3710   -13.6580 hn         1 G97       0.155000
     35 HAC         20.2420    -0.3100   -11.6660 ha         1 G97       0.180000
     36 HAA         19.2100     0.8120    -9.7170 ha         1 G97       0.178500
     37 HAAA        19.0340     2.3800   -10.6900 ha         1 G97       0.178500
     38 HAK         20.5400     2.8560   -15.5490 ha         1 G97       0.151000
     39 HAL         21.2580     3.0820   -17.8580 ha         1 G97       0.107000
     40 HNAR        21.8850     3.0270   -19.6360 hn         1 G97       0.505000
     41 HAJ         21.9050     4.7020   -21.2930 ha         1 G97       0.146000
     42 HAG         22.7800     4.7640   -23.8970 h4         1 G97       0.155000
     43 HNAS        23.7070     2.3540   -24.2920 hn         1 G97       0.376000
@<TRIPOS>BOND
     1     1     2 ar  
     2     1     6 ar  
     3     1    28 1   
     4     2     3 ar  
     5     2    29 1   
     6     3     4 ar  
     7     3    30 1   
     8     4     5 ar  
     9     4    31 1   
    10     5     6 ar  
    11     5    32 1   
    12     6     7 1   
    13     7     8 ar  
    14     7     9 ar  
    15     8    21 ar  
    16     9    10 ar  
    17    10    11 ar  
    18    10    20 ar  
    19    11    12 ar  
    20    11    33 1   
    21    12    13 1   
    22    12    18 ar  
    23    13    14 1   
    24    13    34 1   
    25    14    15 2   
    26    14    16 1   
    27    16    17 2   
    28    16    35 1   
    29    17    36 1   
    30    17    37 1   
    31    18    19 ar  
    32    18    38 1   
    33    19    20 ar  
    34    19    39 1   
    35    20    21 ar  
    36    21    22 1   
    37    22    23 1   
    38    22    40 1   
    39    23    24 1   
    40    23    27 2   
    41    24    25 2   
    42    24    41 1   
    43    25    26 1   
    44    25    42 1   
    45    26    27 1   
    46    26    43 1   
@<TRIPOS>SUBSTRUCTURE
     1 G97         1 TEMP              0 ****  ****    0 ROOT
