@<TRIPOS>MOLECULE
G97
   43    46     1     0     0
SMALL
abcg2


@<TRIPOS>ATOM
      1 CAH         23.9770    -2.1360   -21.2910 ca         1 G97      -0.063000
      2 CAE         24.5460    -3.2170   -21.9480 ca         1 G97      -0.133000
      3 CAD         24.8570    -4.3750   -21.2480 ca         1 G97      -0.093000
      4 CAF         24.5920    -4.4470   -19.8850 ca         1 G97      -0.133000
      5 CAI         24.0190    -3.3690   -19.2290 ca         1 G97      -0.063000
      6 CAW         23.7050    -2.2000   -19.9240 cp         1 G97      -0.152500
      7 C2          23.0870    -1.0520   -19.2210 cp         1 G97       0.249500
      8 N1          22.9330     0.0710   -19.9460 nb         1 G97      -0.250000
      9 N3          22.7420    -1.2200   -17.9720 nb         1 G97      -0.222000
     10 C4          22.1640    -0.1630   -17.3490 ca         1 G97       0.089000
     11 CAM         21.7740    -0.3070   -16.0090 ca         1 G97      -0.179000
     12 CAU         21.1690     0.7290   -15.3240 ca         1 G97       0.018000
     13 NAQ         20.8080     0.4890   -14.0030 ns         1 G97      -0.144000
     14 CAT         20.1860     1.3080   -13.1070 c          1 G97       0.613300
     15 OAB         19.8470     2.4520   -13.3460 o          1 G97      -0.578100
     16 CAC         19.9580     0.6560   -11.7920 ce         1 G97      -0.308200
     17 CAA         19.3490     1.2940   -10.7990 c2         1 G97      -0.220000
     18 CAK         20.9460     1.9570   -15.9870 ca         1 G97      -0.144000
     19 CAL         21.3280     2.1060   -17.2950 ca         1 G97      -0.050000
     20 C5          21.9410     1.0630   -18.0090 ca         1 G97      -0.204000
     21 C6          22.3810     1.1150   -19.3770 ca         1 G97       0.421900
     22 NAR         22.2260     2.2570   -20.0820 nu         1 G97      -0.886800
     23 CAV         22.6110     2.5650   -21.3810 cc         1 G97       0.494900
     24 CAJ         22.6230     3.8840   -21.8810 cc         1 G97      -0.272000
     25 CAG         23.0350     3.7400   -23.1840 cd         1 G97      -0.147000
     26 NAS         23.2340     2.4300   -23.3760 na         1 G97      -0.008200
     27 NAN         22.9800     1.6900   -22.2960 nd         1 G97      -0.503800
     28 HAH         23.7370    -1.2370   -21.8420 ha         1 G97       0.138500
     29 HAE         24.7470    -3.1540   -23.0090 ha         1 G97       0.110500
     30 HAD         25.3020    -5.2180   -21.7610 ha         1 G97       0.108000
     31 HAF         24.8330    -5.3450   -19.3320 ha         1 G97       0.110500
     32 HAI         23.8130    -3.4300   -18.1690 ha         1 G97       0.138500
     33 HAM         21.9570    -1.2590   -15.5260 ha         1 G97       0.130000
     34 HNAQ        21.0280    -0.4400   -13.6710 hn         1 G97       0.155000
     35 HAC         20.2980    -0.3650   -11.6570 ha         1 G97       0.180000
     36 HAA         19.1850     0.8110    -9.8460 ha         1 G97       0.178500
     37 HAAA        18.9970     2.3120   -10.9020 ha         1 G97       0.178500
     38 HAK         20.4770     2.7820   -15.4790 ha         1 G97       0.151000
     39 HAL         21.1310     3.0660   -17.7550 ha         1 G97       0.107000
     40 HNAR        21.8320     3.0430   -19.5920 hn         1 G97       0.505000
     41 HAJ         22.3720     4.7940   -21.3610 ha         1 G97       0.146000
     42 HAG         23.1980     4.4660   -23.9630 h4         1 G97       0.155000
     43 HNAS        23.5380     1.9780   -24.2230 hn         1 G97       0.376000
@<TRIPOS>BOND
     1     1     2 ar  
     2     1     6 ar  
     3     1    28 1   
     4     2     3 ar  
     5     2    29 1   
     6     3     4 ar  
     7     3    30 1   
     8     4     5 ar  
     9     4    31 1   
    10     5     6 ar  
    11     5    32 1   
    12     6     7 1   
    13     7     8 ar  
    14     7     9 ar  
    15     8    21 ar  
    16     9    10 ar  
    17    10    11 ar  
    18    10    20 ar  
    19    11    12 ar  
    20    11    33 1   
    21    12    13 1   
    22    12    18 ar  
    23    13    14 1   
    24    13    34 1   
    25    14    15 2   
    26    14    16 1   
    27    16    17 2   
    28    16    35 1   
    29    17    36 1   
    30    17    37 1   
    31    18    19 ar  
    32    18    38 1   
    33    19    20 ar  
    34    19    39 1   
    35    20    21 ar  
    36    21    22 1   
    37    22    23 1   
    38    22    40 1   
    39    23    24 1   
    40    23    27 2   
    41    24    25 2   
    42    24    41 1   
    43    25    26 1   
    44    25    42 1   
    45    26    27 1   
    46    26    43 1   
@<TRIPOS>SUBSTRUCTURE
     1 G97         1 TEMP              0 ****  ****    0 ROOT
