@<TRIPOS>MOLECULE
G98
   63    66     1     0     0
SMALL
No Charge or Current Charge


@<TRIPOS>ATOM
      1 N1           1.0970    -0.6040     0.1040 nb         1 G98      -0.757000
      2 N3          -2.6600    -0.2670     0.1550 nc         1 G98      -0.622100
      3 C4          -3.1510     0.9820     0.0060 cd         1 G98       0.554400
      4 C5          -1.2780    -0.0640     0.0860 ca         1 G98       0.025400
      5 C6          -0.9830     1.2540    -0.0970 ca         1 G98      -0.021200
      6 C8          -2.2880     4.2700     0.8280 c3         1 G98      -0.114100
      7 C10         -5.5720     0.3330     0.1920 cc         1 G98       0.286000
      8 C13         -0.8420    -5.0320     0.6680 c3         1 G98       0.275100
      9 C15         -2.3530    -5.3350     0.7740 c3         1 G98      -0.098100
     10 C17          4.0190     0.0660    -1.8690 c3         1 G98      -0.093400
     11 C20          5.7030     0.1380     1.3140 ca         1 G98      -0.089000
     12 C21          6.8230     0.7010     1.9500 ca         1 G98      -0.115000
     13 C22          7.2410     2.0010     1.6220 ca         1 G98      -0.103000
     14 C24          5.4160     2.1780     0.0200 ca         1 G98      -0.089000
     15 O2          -0.2190    -5.4690     1.8700 oh         1 G98      -0.650000
     16 C14         -0.1990    -5.7930    -0.5120 c3         1 G98      -0.098100
     17 C12         -0.6170    -3.5860     0.5290 c1         1 G98      -0.136100
     18 C3          -0.2020    -0.9880     0.1850 ca         1 G98       0.558000
     19 C1           1.3590     0.7110    -0.0830 ca         1 G98       0.601300
     20 O3           2.6600     1.1480    -0.1520 os         1 G98      -0.474300
     21 C16          3.7750     0.2500    -0.3480 c3         1 G98       0.227600
     22 C19          4.9900     0.8720     0.3420 ca         1 G98      -0.093300
     23 C23          6.5360     2.7400     0.6570 ca         1 G98      -0.115000
     24 N7           3.3060    -0.9870    -4.0130 n8         1 G98      -0.997200
     25 C2           0.3480     1.6840    -0.1800 ca         1 G98      -0.195000
     26 N2          -2.1510     1.9670    -0.1620 na         1 G98      -0.173600
     27 C9          -4.5670     1.2620     0.0410 cd         1 G98      -0.426900
     28 N5          -6.7450     1.0680     0.2110 na         1 G98      -0.093300
     29 O1          -6.5890     2.4690     0.0630 os         1 G98      -0.252400
     30 N4          -5.1940     2.4970    -0.0400 na         1 G98      -0.012300
     31 H7          -3.1100     3.6100    -1.0760 h1         1 G98       0.059700
     32 H7A         -1.3560     3.7060    -1.0390 h1         1 G98       0.059700
     33 H8          -3.1590     4.0060     1.4400 hc         1 G98       0.052700
     34 H8A         -1.3850     4.1190     1.4320 hc         1 G98       0.052700
     35 H8B         -2.3560     5.3330     0.5700 hc         1 G98       0.052700
     36 H15         -2.7990    -4.8150     1.6300 hc         1 G98       0.047367
     37 H15A        -2.8800    -5.0140    -0.1330 hc         1 G98       0.047367
     38 H15B        -2.5250    -6.4110     0.9030 hc         1 G98       0.047367
     39 H17          4.1090     1.0490    -2.3450 hc         1 G98       0.057700
     40 H17A         4.9850    -0.4360    -1.9970 hc         1 G98       0.057700
     41 H20          5.3900    -0.8700     1.5780 ha         1 G98       0.116500
     42 H21          7.3670     0.1280     2.6980 ha         1 G98       0.112500
     43 H22          8.1080     2.4360     2.1150 ha         1 G98       0.112000
     44 H24          4.8750     2.7620    -0.7220 ha         1 G98       0.116500
     45 HO2          0.6350    -4.9880     1.9200 ho         1 G98       0.449000
     46 H14         -0.6540    -5.4920    -1.4640 hc         1 G98       0.047367
     47 H14A         0.8780    -5.5940    -0.5720 hc         1 G98       0.047367
     48 H14B        -0.3380    -6.8750    -0.3990 hc         1 G98       0.047367
     49 H16          3.5930    -0.7320     0.1110 h1         1 G98       0.082700
     50 H23          6.8570     3.7480     0.4030 ha         1 G98       0.112500
     51 H18          2.8210    -1.7330    -2.1060 h1         1 G98       0.036700
     52 H18A         1.9780    -0.2300    -2.5720 h1         1 G98       0.036700
     53 HN7          2.5430    -1.4930    -4.4790 hn         1 G98       0.389500
     54 HN7A         3.3320    -0.0840    -4.5030 hn         1 G98       0.389500
     55 H2           0.6110     2.7280    -0.3140 ha         1 G98       0.142000
     56 HN6         -4.6130    -1.4300     0.4310 hn         1 G98       0.514500
     57 HN6A        -6.3200    -1.5090     0.7280 hn         1 G98       0.514500
     58 HN5         -7.7270     0.8310     0.2550 hn         1 G98       0.277000
     59 HN4         -4.8770     3.4600    -0.0870 hn         1 G98       0.234000
     60 C7          -2.2330     3.4110    -0.4490 c3         1 G98       0.089600
     61 C11         -0.4240    -2.3950     0.3770 cg         1 G98      -0.194000
     62 C18          2.9410    -0.7590    -2.6010 c3         1 G98       0.148800
     63 N6          -5.5370    -1.0130     0.3060 nv         1 G98      -1.064000
@<TRIPOS>BOND
     1     1    18 ar  
     2     1    19 ar  
     3     2     3 2   
     4     2     4 1   
     5     3    26 1   
     6     3    27 1   
     7     4     5 ar  
     8     4    18 ar  
     9     5    25 ar  
    10     5    26 1   
    11     6    33 1   
    12     6    34 1   
    13     6    35 1   
    14     6    60 1   
    15     7    27 2   
    16     7    28 1   
    17     7    63 1   
    18     8     9 1   
    19     8    15 1   
    20     8    16 1   
    21     8    17 1   
    22     9    36 1   
    23     9    37 1   
    24     9    38 1   
    25    10    21 1   
    26    10    39 1   
    27    10    40 1   
    28    10    62 1   
    29    11    12 ar  
    30    11    22 ar  
    31    11    41 1   
    32    12    13 ar  
    33    12    42 1   
    34    13    23 ar  
    35    13    43 1   
    36    14    22 ar  
    37    14    23 ar  
    38    14    44 1   
    39    15    45 1   
    40    16    46 1   
    41    16    47 1   
    42    16    48 1   
    43    17    61 3   
    44    18    61 1   
    45    19    20 1   
    46    19    25 ar  
    47    20    21 1   
    48    21    22 1   
    49    21    49 1   
    50    23    50 1   
    51    24    53 1   
    52    24    54 1   
    53    24    62 1   
    54    25    55 1   
    55    26    60 1   
    56    27    30 1   
    57    28    29 1   
    58    28    58 1   
    59    29    30 1   
    60    30    59 1   
    61    31    60 1   
    62    32    60 1   
    63    51    62 1   
    64    52    62 1   
    65    56    63 1   
    66    57    63 1   
@<TRIPOS>SUBSTRUCTURE
     1 G98         1 TEMP              0 ****  ****    0 ROOT
