@<TRIPOS>MOLECULE
G98
   63    66     1     0     0
SMALL
bcc


@<TRIPOS>ATOM
      1 N1           1.0910    -0.4800    -0.1120 nb         1 G98      -0.757000
      2 N3          -2.5670    -0.1350     0.1550 nc         1 G98      -0.622100
      3 C4          -3.0760     1.0770     0.0300 cd         1 G98       0.554400
      4 C5          -1.2200     0.0270     0.0260 ca         1 G98      -0.039900
      5 C6          -0.9100     1.3830    -0.1980 ca         1 G98      -0.021200
      6 C8          -2.4240     4.1160     1.0920 c3         1 G98      -0.114100
      7 C10         -5.3890     0.3780     0.5210 cc         1 G98       0.198300
      8 C13         -0.9390    -4.8730     0.6460 c3         1 G98       0.251900
      9 C15         -2.4370    -5.1210     0.4860 c3         1 G98      -0.098100
     10 C17          4.1300    -0.1030    -1.9020 c3         1 G98      -0.093400
     11 C20          5.5520     0.1120     1.2030 ca         1 G98      -0.107000
     12 C21          6.6360     0.6520     1.8840 ca         1 G98      -0.133000
     13 C22          7.0140     1.9680     1.6570 ca         1 G98      -0.121000
     14 C24          5.2230     2.1940     0.0610 ca         1 G98      -0.107000
     15 O2          -0.6080    -5.2340     1.9740 oh         1 G98      -0.587800
     16 C14         -0.1430    -5.7030    -0.3620 c3         1 G98      -0.098100
     17 C12         -0.6580    -3.4420     0.4320 c1         1 G98      -0.136100
     18 C3          -0.1740    -0.8840     0.0600 ca         1 G98       0.623300
     19 C1           1.3530     0.7920    -0.3190 ca         1 G98       0.666600
     20 O3           2.6250     1.1910    -0.5020 os         1 G98      -0.451100
     21 C16          3.6990     0.2480    -0.4810 c3         1 G98       0.204400
     22 C19          4.8370     0.8740     0.2850 ca         1 G98      -0.093300
     23 C23          6.3020     2.7370     0.7440 ca         1 G98      -0.133000
     24 N7           3.6530    -1.2090    -4.0230 n8         1 G98      -0.886800
     25 C2           0.3900     1.8080    -0.3710 ca         1 G98      -0.278300
     26 N2          -2.1110     2.0340    -0.2030 na         1 G98      -0.144300
     27 C9          -4.4720     1.3100     0.1320 cd         1 G98      -0.376200
     28 N5          -6.6480     0.9900     0.6490 na         1 G98      -0.093700
     29 O1          -6.3540     2.3700     0.5900 os         1 G98      -0.252400
     30 N4          -5.1700     2.5340    -0.1510 na         1 G98      -0.012700
     31 H7          -3.1260     3.7070    -0.9060 h1         1 G98       0.059700
     32 H7A         -1.3940     3.8700    -0.7890 h1         1 G98       0.059700
     33 H8          -3.3150     3.7470     1.5980 hc         1 G98       0.052700
     34 H8A         -1.5580     3.9190     1.7240 hc         1 G98       0.052700
     35 H8B         -2.5230     5.1960     0.9830 hc         1 G98       0.052700
     36 H15         -3.0110    -4.5280     1.1990 hc         1 G98       0.047367
     37 H15A        -2.7630    -4.8560    -0.5180 hc         1 G98       0.047367
     38 H15B        -2.6600    -6.1760     0.6510 hc         1 G98       0.047367
     39 H17          4.4430     0.8110    -2.4190 hc         1 G98       0.057700
     40 H17A         5.0180    -0.7370    -1.8300 hc         1 G98       0.057700
     41 H20          5.2590    -0.9140     1.3900 ha         1 G98       0.134500
     42 H21          7.1800     0.0440     2.5960 ha         1 G98       0.130500
     43 H22          7.8560     2.3930     2.1880 ha         1 G98       0.130000
     44 H24          4.6840     2.8100    -0.6480 ha         1 G98       0.134500
     45 HO2          0.3480    -5.1720     2.0790 ho         1 G98       0.410000
     46 H14         -0.4070    -5.4350    -1.3850 hc         1 G98       0.047367
     47 H14A         0.9300    -5.5450    -0.2400 hc         1 G98       0.047367
     48 H14B        -0.3550    -6.7640    -0.2190 hc         1 G98       0.047367
     49 H16          3.3810    -0.6610     0.0340 h1         1 G98       0.082700
     50 H23          6.5880     3.7650     0.5630 ha         1 G98       0.130500
     51 H18          2.7840    -1.7460    -2.2120 h1         1 G98       0.036700
     52 H18A         2.1810    -0.2190    -2.8260 h1         1 G98       0.036700
     53 HN7          2.9650    -1.7300    -4.5500 hn         1 G98       0.334300
     54 HN7A         3.8280    -0.3710    -4.5650 hn         1 G98       0.334300
     55 H2           0.6690     2.8390    -0.5400 ha         1 G98       0.160000
     56 HN6         -4.3220    -1.2980     0.7020 hn         1 G98       0.459300
     57 HN6A        -5.9100    -1.3800     1.3840 hn         1 G98       0.459300
     58 HN5         -7.2680     0.7420    -0.1270 hn         1 G98       0.226700
     59 HN4         -5.4460     2.5540    -1.1360 hn         1 G98       0.183700
     60 C7          -2.2710     3.4770    -0.2760 c3         1 G98       0.060300
     61 C11         -0.4210    -2.2720     0.2660 cg         1 G98      -0.194000
     62 C18          3.0840    -0.8340    -2.7340 c3         1 G98       0.148800
     63 N6          -5.2600    -0.9250     0.7630 nv         1 G98      -0.815200
@<TRIPOS>BOND
     1     1    18 ar  
     2     1    19 ar  
     3     2     3 2   
     4     2     4 1   
     5     3    26 1   
     6     3    27 1   
     7     4     5 ar  
     8     4    18 ar  
     9     5    25 ar  
    10     5    26 1   
    11     6    33 1   
    12     6    34 1   
    13     6    35 1   
    14     6    60 1   
    15     7    27 2   
    16     7    28 1   
    17     7    63 1   
    18     8     9 1   
    19     8    15 1   
    20     8    16 1   
    21     8    17 1   
    22     9    36 1   
    23     9    37 1   
    24     9    38 1   
    25    10    21 1   
    26    10    39 1   
    27    10    40 1   
    28    10    62 1   
    29    11    12 ar  
    30    11    22 ar  
    31    11    41 1   
    32    12    13 ar  
    33    12    42 1   
    34    13    23 ar  
    35    13    43 1   
    36    14    22 ar  
    37    14    23 ar  
    38    14    44 1   
    39    15    45 1   
    40    16    46 1   
    41    16    47 1   
    42    16    48 1   
    43    17    61 3   
    44    18    61 1   
    45    19    20 1   
    46    19    25 ar  
    47    20    21 1   
    48    21    22 1   
    49    21    49 1   
    50    23    50 1   
    51    24    53 1   
    52    24    54 1   
    53    24    62 1   
    54    25    55 1   
    55    26    60 1   
    56    27    30 1   
    57    28    29 1   
    58    28    58 1   
    59    29    30 1   
    60    30    59 1   
    61    31    60 1   
    62    32    60 1   
    63    51    62 1   
    64    52    62 1   
    65    56    63 1   
    66    57    63 1   
@<TRIPOS>SUBSTRUCTURE
     1 G98         1 TEMP              0 ****  ****    0 ROOT
