@<TRIPOS>MOLECULE
G9A
   13    12     1     0     0
SMALL
No Charge or Current Charge


@<TRIPOS>ATOM
      1 O2           2.8580    -0.8910    -1.2020 o          1 G9A      -0.757500
      2 C4           2.5630    -0.1550    -0.2720 c          1 G9A       0.719000
      3 O1           3.0610    -0.2480     0.8400 o          1 G9A      -0.757500
      4 C1           1.3750     0.8190    -0.4620 c3         1 G9A      -0.178200
      5 C2           0.0440     0.1630    -0.1230 c2         1 G9A      -0.170200
      6 C3          -1.1630     0.7740    -0.1950 ce         1 G9A      -0.335200
      7 C5          -2.4740     0.1390     0.1340 c          1 G9A       0.707200
      8 O4          -2.4920    -1.0240     0.5020 o          1 G9A      -0.769000
      9 O3          -3.4760     0.8240     0.0180 o          1 G9A      -0.769000
     10 H2           1.4790     1.6700     0.2230 hc         1 G9A       0.005700
     11 H3           1.3070     1.1230    -1.5140 hc         1 G9A       0.005700
     12 H4           0.1190    -0.8800     0.1980 ha         1 G9A       0.174000
     13 H5          -1.2240     1.8120    -0.5160 ha         1 G9A       0.124000
@<TRIPOS>BOND
     1     1     2 1   
     2     2     3 1   
     3     2     4 1   
     4     4     5 1   
     5     4    10 1   
     6     4    11 1   
     7     5     6 2   
     8     5    12 1   
     9     6     7 1   
    10     6    13 1   
    11     7     8 1   
    12     7     9 1   
@<TRIPOS>SUBSTRUCTURE
     1 G9A         1 TEMP              0 ****  ****    0 ROOT
