@<TRIPOS>MOLECULE
G9A
   13    12     1     0     0
SMALL
bcc


@<TRIPOS>ATOM
      1 O2           2.2030    -1.2000     0.3940 o          1 G9A      -0.862800
      2 C4           2.4670    -0.0240     0.0810 c          1 G9A       0.929600
      3 O1           3.5590     0.5600     0.2230 o          1 G9A      -0.862800
      4 C1           1.3390     0.8100    -0.5710 c3         1 G9A      -0.178200
      5 C2          -0.0020     0.1630    -0.5380 c2         1 G9A      -0.120200
      6 C3          -1.0850     0.6730     0.0460 ce         1 G9A      -0.285200
      7 C5          -2.4360     0.0020     0.0590 c          1 G9A       0.917800
      8 O4          -2.5470    -1.1080    -0.5040 o          1 G9A      -0.874300
      9 O3          -3.3490     0.6270     0.6420 o          1 G9A      -0.874300
     10 H2           1.3020     1.7980    -0.1030 hc         1 G9A       0.005700
     11 H3           1.6330     0.9870    -1.6130 hc         1 G9A       0.005700
     12 H4          -0.0950    -0.7930    -1.0420 ha         1 G9A       0.124000
     13 H5          -1.0110     1.6320     0.5570 ha         1 G9A       0.074000
@<TRIPOS>BOND
     1     1     2 1   
     2     2     3 1   
     3     2     4 1   
     4     4     5 1   
     5     4    10 1   
     6     4    11 1   
     7     5     6 2   
     8     5    12 1   
     9     6     7 1   
    10     6    13 1   
    11     7     8 1   
    12     7     9 1   
@<TRIPOS>SUBSTRUCTURE
     1 G9A         1 TEMP              0 ****  ****    0 ROOT
