@<TRIPOS>MOLECULE
G9B
   70    75     1     0     0
SMALL
No Charge or Current Charge


@<TRIPOS>ATOM
      1 C1           4.8490    -0.2100     0.6580 ca         1 G9B      -0.077200
      2 C2           5.3420    -1.2780    -0.0340 ca         1 G9B       0.082400
      3 C3           5.6680     0.7350     1.2930 ca         1 G9B      -0.102000
      4 C4           6.7260    -1.4830    -0.1350 ca         1 G9B      -0.060000
      5 C5           7.0630     0.5490     1.2030 ca         1 G9B      -0.101000
      6 C6           7.5900    -0.5570     0.4920 ca         1 G9B      -0.129000
      7 N7           3.4960    -0.3000     0.5710 na         1 G9B      -0.072400
      8 C8           3.1710    -1.4290    -0.2100 cc         1 G9B       0.410800
      9 N9           4.3220    -2.0580    -0.5770 nd         1 G9B      -0.632100
     10 C10          2.6280     0.7600     0.8300 ca         1 G9B       0.051800
     11 C11          2.0970     1.5260    -0.2260 ca         1 G9B      -0.153000
     12 C12          2.2970     1.0840     2.1570 ca         1 G9B      -0.126000
     13 C13          1.2170     2.5950     0.0290 ca         1 G9B      -0.009000
     14 C14          1.4310     2.1560     2.4250 ca         1 G9B      -0.085000
     15 C15          0.8900     2.9070     1.3670 ca         1 G9B      -0.129000
     16 N16          0.7080     3.3060    -1.0930 ns         1 G9B      -0.150000
     17 C17         -0.2050     4.3460    -1.2070 c          1 G9B       0.607100
     18 C18         -0.4630     4.8030    -2.6510 c3         1 G9B      -0.159400
     19 O19         -0.7970     4.8570    -0.2630 o          1 G9B      -0.574100
     20 C20          0.1850     6.1750    -2.9430 c3         1 G9B      -0.077100
     21 C21          1.7980    -1.9040    -0.5370 ca         1 G9B       0.199700
     22 N22          0.7110    -1.3090     0.0560 nb         1 G9B      -0.608000
     23 C23          1.6010    -3.0060    -1.4440 ca         1 G9B       0.618900
     24 C24         -0.5140    -1.7990    -0.2670 ca         1 G9B       0.330500
     25 N25          0.4060    -3.5140    -1.7630 nb         1 G9B      -0.744000
     26 C26         -0.6560    -2.8990    -1.1690 ca         1 G9B       0.369900
     27 N27          2.5370    -3.6960    -2.1240 nv         1 G9B      -1.064900
     28 C28         -1.6560    -1.1270     0.3540 cc         1 G9B      -0.254500
     29 C29         -2.9570    -1.4730     0.1230 cd         1 G9B      -0.161000
     30 C30         -1.6720    -0.0490     1.2500 cc         1 G9B       0.272900
     31 N31         -3.6880    -0.5710     0.9070 na         1 G9B       0.135800
     32 N32         -2.8850     0.3190     1.6110 nd         1 G9B      -0.530800
     33 C33         -5.1670    -0.5280     1.0050 c6         1 G9B       0.092300
     34 C34         -5.7370    -1.8500     1.5770 c6         1 G9B      -0.090900
     35 C35         -5.8180    -0.2170    -0.3660 c6         1 G9B      -0.090900
     36 C36         -7.2800    -1.7950     1.6400 c6         1 G9B       0.166300
     37 C37         -7.3590    -0.2090    -0.2470 c6         1 G9B       0.166300
     38 N38         -7.8670    -1.4950     0.3050 n3         1 G9B      -0.719600
     39 C39         -9.3450    -1.5560     0.3150 c3         1 G9B       0.153100
     40 H3           5.2470     1.5780     1.8360 ha         1 G9B       0.127000
     41 H4           7.1210    -2.3330    -0.6850 ha         1 G9B       0.125000
     42 H5           7.7360     1.2570     1.6820 ha         1 G9B       0.113000
     43 H6           8.6670    -0.6940     0.4270 ha         1 G9B       0.113000
     44 H11          2.3630     1.2790    -1.2510 ha         1 G9B       0.123000
     45 H12          2.7100     0.5030     2.9790 ha         1 G9B       0.131000
     46 H14          1.1760     2.4030     3.4530 ha         1 G9B       0.122000
     47 H15          0.2230     3.7280     1.6120 ha         1 G9B       0.153000
     48 HN16         1.0870     2.9940    -1.9770 hn         1 G9B       0.150000
     49 H18         -0.0510     4.0720    -3.3580 hc         1 G9B       0.057700
     50 H18A        -1.5440     4.8950    -2.8040 hc         1 G9B       0.057700
     51 H20         -0.0130     6.4800    -3.9770 hc         1 G9B       0.044367
     52 H20A        -0.2180     6.9470    -2.2750 hc         1 G9B       0.044367
     53 H20B         1.2720     6.1300    -2.8010 hc         1 G9B       0.044367
     54 H26         -1.6370    -3.2940    -1.4250 h4         1 G9B       0.023100
     55 HN27         3.4960    -3.5830    -1.7960 hn         1 G9B       0.519000
     56 HN2A         2.2600    -4.6160    -2.4430 hn         1 G9B       0.519000
     57 H29         -3.4160    -2.2360    -0.4950 h4         1 G9B       0.153000
     58 H30         -0.8210     0.4840     1.6530 h4         1 G9B       0.053100
     59 H33         -5.4320     0.2830     1.6980 h1         1 G9B       0.085700
     60 H34         -5.4320    -2.7000     0.9520 hc         1 G9B       0.059700
     61 H34A        -5.3320    -2.0330     2.5810 hc         1 G9B       0.059700
     62 H35         -5.4700     0.7560    -0.7360 hc         1 G9B       0.059700
     63 H35A        -5.5170    -0.9660    -1.1100 hc         1 G9B       0.059700
     64 H36         -7.6520    -2.7620     2.0110 h1         1 G9B       0.036700
     65 H36A        -7.5840    -1.0300     2.3710 h1         1 G9B       0.036700
     66 H37         -7.6660     0.6300     0.3960 h1         1 G9B       0.036700
     67 H37A        -7.7870    -0.0260    -1.2440 h1         1 G9B       0.036700
     68 H39         -9.7650    -0.7880     0.9780 h1         1 G9B       0.033033
     69 H39A        -9.7460    -1.3970    -0.6950 h1         1 G9B       0.033033
     70 H39B        -9.6900    -2.5390     0.6640 h1         1 G9B       0.033033
@<TRIPOS>BOND
     1     1     2 ar  
     2     1     3 ar  
     3     1     7 1   
     4     2     4 ar  
     5     2     9 1   
     6     3     5 ar  
     7     3    40 1   
     8     4     6 ar  
     9     4    41 1   
    10     5     6 ar  
    11     5    42 1   
    12     6    43 1   
    13     7     8 1   
    14     7    10 1   
    15     8     9 2   
    16     8    21 1   
    17    10    11 ar  
    18    10    12 ar  
    19    11    13 ar  
    20    11    44 1   
    21    12    14 ar  
    22    12    45 1   
    23    13    15 ar  
    24    13    16 1   
    25    14    15 ar  
    26    14    46 1   
    27    15    47 1   
    28    16    17 1   
    29    16    48 1   
    30    17    18 1   
    31    17    19 2   
    32    18    20 1   
    33    18    49 1   
    34    18    50 1   
    35    20    51 1   
    36    20    52 1   
    37    20    53 1   
    38    21    22 ar  
    39    21    23 ar  
    40    22    24 ar  
    41    23    25 ar  
    42    23    27 1   
    43    24    26 ar  
    44    24    28 1   
    45    25    26 ar  
    46    26    54 1   
    47    27    55 1   
    48    27    56 1   
    49    28    29 2   
    50    28    30 1   
    51    29    31 1   
    52    29    57 1   
    53    30    32 2   
    54    30    58 1   
    55    31    32 1   
    56    31    33 1   
    57    33    34 1   
    58    33    35 1   
    59    33    59 1   
    60    34    36 1   
    61    34    60 1   
    62    34    61 1   
    63    35    37 1   
    64    35    62 1   
    65    35    63 1   
    66    36    38 1   
    67    36    64 1   
    68    36    65 1   
    69    37    38 1   
    70    37    66 1   
    71    37    67 1   
    72    38    39 1   
    73    39    68 1   
    74    39    69 1   
    75    39    70 1   
@<TRIPOS>SUBSTRUCTURE
     1 G9B         1 TEMP              0 ****  ****    0 ROOT
