@<TRIPOS>MOLECULE
G9B
   70    75     1     0     0
SMALL
bcc


@<TRIPOS>ATOM
      1 C1           4.7480    -0.2530     0.4980 ca         1 G9B      -0.077200
      2 C2           5.3220    -1.4210    -0.0180 ca         1 G9B       0.082400
      3 C3           5.5080     0.7880     1.0180 ca         1 G9B      -0.120000
      4 C4           6.7070    -1.5820    -0.0160 ca         1 G9B      -0.078000
      5 C5           6.8810     0.6130     1.0120 ca         1 G9B      -0.119000
      6 C6           7.4730    -0.5550     0.5050 ca         1 G9B      -0.147000
      7 N7           3.3890    -0.4090     0.3450 na         1 G9B      -0.072400
      8 C8           3.2000    -1.6370    -0.2420 cc         1 G9B       0.410800
      9 N9           4.3350    -2.2530    -0.4680 nd         1 G9B      -0.632100
     10 C10          2.4700     0.6130     0.7120 ca         1 G9B       0.051800
     11 C11          1.9580     1.4480    -0.2630 ca         1 G9B      -0.171000
     12 C12          2.1990     0.8250     2.0540 ca         1 G9B      -0.144000
     13 C13          1.1350     2.5170     0.0890 ca         1 G9B       0.083600
     14 C14          1.3930     1.8980     2.4010 ca         1 G9B      -0.103000
     15 C15          0.8590     2.7450     1.4400 ca         1 G9B      -0.147000
     16 N16          0.6370     3.2930    -0.9580 ns         1 G9B      -0.476100
     17 C17         -0.0490     4.4680    -0.9140 c          1 G9B       0.674100
     18 C18         -0.4600     4.9760    -2.2800 c3         1 G9B      -0.159400
     19 O19         -0.3250     5.0520     0.1170 o          1 G9B      -0.574100
     20 C20         -0.8410     6.4450    -2.2850 c3         1 G9B      -0.077100
     21 C21          1.8980    -2.2080    -0.5610 ca         1 G9B       0.199700
     22 N22          0.8250    -1.5560    -0.1570 nb         1 G9B      -0.608000
     23 C23          1.7720    -3.4340    -1.2790 ca         1 G9B       0.618900
     24 C24         -0.3850    -2.0280    -0.4220 ca         1 G9B       0.330500
     25 N25          0.5490    -3.9090    -1.5390 nb         1 G9B      -0.744000
     26 C26         -0.4970    -3.2290    -1.1250 ca         1 G9B       0.369900
     27 N27          2.8150    -4.1430    -1.7260 nv         1 G9B      -0.954500
     28 C28         -1.5360    -1.2630     0.0350 cc         1 G9B      -0.319800
     29 C29         -2.8810    -1.5080    -0.1630 cd         1 G9B      -0.128300
     30 C30         -1.5190    -0.0690     0.7810 cc         1 G9B       0.338200
     31 N31         -3.5530    -0.5070     0.4290 na         1 G9B       0.114400
     32 N32         -2.7400     0.3700     1.0130 nd         1 G9B      -0.530800
     33 C33         -4.9940    -0.3550     0.5520 c6         1 G9B       0.063000
     34 C34         -5.5650    -1.2470     1.6480 c6         1 G9B      -0.090900
     35 C35         -5.7140    -0.6200    -0.7630 c6         1 G9B      -0.090900
     36 C36         -7.0720    -1.0580     1.7400 c6         1 G9B       0.166300
     37 C37         -7.2140    -0.4490    -0.5710 c6         1 G9B       0.166300
     38 N38         -7.7130    -1.3280     0.4680 n3         1 G9B      -0.719600
     39 C39         -9.1530    -1.2540     0.5740 c3         1 G9B       0.153100
     40 H3           5.0570     1.6890     1.4110 ha         1 G9B       0.145000
     41 H4           7.1620    -2.4810    -0.4110 ha         1 G9B       0.143000
     42 H5           7.5140     1.3960     1.4080 ha         1 G9B       0.131000
     43 H6           8.5510    -0.6480     0.5210 ha         1 G9B       0.131000
     44 H11          2.2010     1.2640    -1.3030 ha         1 G9B       0.141000
     45 H12          2.6120     0.1690     2.8080 ha         1 G9B       0.149000
     46 H14          1.1680     2.0830     3.4430 ha         1 G9B       0.140000
     47 H15          0.2340     3.5670     1.7470 ha         1 G9B       0.171000
     48 HN16         0.8290     2.9320    -1.8800 hn         1 G9B       0.316500
     49 H18          0.3420     4.7880    -2.9990 hc         1 G9B       0.057700
     50 H18A        -1.3060     4.3650    -2.6140 hc         1 G9B       0.057700
     51 H20         -1.1400     6.7470    -3.2880 hc         1 G9B       0.044367
     52 H20A        -1.6730     6.6500    -1.6140 hc         1 G9B       0.044367
     53 H20B        -0.0040     7.0760    -1.9850 hc         1 G9B       0.044367
     54 H26         -1.4700    -3.6530    -1.3550 h4         1 G9B       0.023100
     55 HN27         3.7520    -3.8660    -1.4730 hn         1 G9B       0.463800
     56 HN2A         2.6460    -5.0240    -2.1800 hn         1 G9B       0.463800
     57 H29         -3.3900    -2.3080    -0.6760 h4         1 G9B       0.171000
     58 H30         -0.6580     0.4720     1.1410 h4         1 G9B       0.053100
     59 H33         -5.1460     0.6910     0.8310 h1         1 G9B       0.085700
     60 H34         -5.3400    -2.2940     1.4230 hc         1 G9B       0.059700
     61 H34A        -5.1060    -1.0070     2.6090 hc         1 G9B       0.059700
     62 H35         -5.3610     0.0640    -1.5380 hc         1 G9B       0.059700
     63 H35A        -5.5180    -1.6390    -1.1070 hc         1 G9B       0.059700
     64 H36         -7.4790    -1.7370     2.4930 h1         1 G9B       0.036700
     65 H36A        -7.2880    -0.0320     2.0930 h1         1 G9B       0.036700
     66 H37         -7.4340     0.6110    -0.3480 h1         1 G9B       0.036700
     67 H37A        -7.7250    -0.6860    -1.5060 h1         1 G9B       0.036700
     68 H39         -9.5190    -0.2540     0.8530 h1         1 G9B       0.033033
     69 H39A        -9.6120    -1.5220    -0.3790 h1         1 G9B       0.033033
     70 H39B        -9.5090    -1.9600     1.3270 h1         1 G9B       0.033033
@<TRIPOS>BOND
     1     1     2 ar  
     2     1     3 ar  
     3     1     7 1   
     4     2     4 ar  
     5     2     9 1   
     6     3     5 ar  
     7     3    40 1   
     8     4     6 ar  
     9     4    41 1   
    10     5     6 ar  
    11     5    42 1   
    12     6    43 1   
    13     7     8 1   
    14     7    10 1   
    15     8     9 2   
    16     8    21 1   
    17    10    11 ar  
    18    10    12 ar  
    19    11    13 ar  
    20    11    44 1   
    21    12    14 ar  
    22    12    45 1   
    23    13    15 ar  
    24    13    16 1   
    25    14    15 ar  
    26    14    46 1   
    27    15    47 1   
    28    16    17 1   
    29    16    48 1   
    30    17    18 1   
    31    17    19 2   
    32    18    20 1   
    33    18    49 1   
    34    18    50 1   
    35    20    51 1   
    36    20    52 1   
    37    20    53 1   
    38    21    22 ar  
    39    21    23 ar  
    40    22    24 ar  
    41    23    25 ar  
    42    23    27 1   
    43    24    26 ar  
    44    24    28 1   
    45    25    26 ar  
    46    26    54 1   
    47    27    55 1   
    48    27    56 1   
    49    28    29 2   
    50    28    30 1   
    51    29    31 1   
    52    29    57 1   
    53    30    32 2   
    54    30    58 1   
    55    31    32 1   
    56    31    33 1   
    57    33    34 1   
    58    33    35 1   
    59    33    59 1   
    60    34    36 1   
    61    34    60 1   
    62    34    61 1   
    63    35    37 1   
    64    35    62 1   
    65    35    63 1   
    66    36    38 1   
    67    36    64 1   
    68    36    65 1   
    69    37    38 1   
    70    37    66 1   
    71    37    67 1   
    72    38    39 1   
    73    39    68 1   
    74    39    69 1   
    75    39    70 1   
@<TRIPOS>SUBSTRUCTURE
     1 G9B         1 TEMP              0 ****  ****    0 ROOT
