@<TRIPOS>MOLECULE
G9C
   49    52     1     0     0
SMALL
No Charge or Current Charge


@<TRIPOS>ATOM
      1 C1          31.0660   -25.7220   -17.1780 ca         1 G9C      -0.108000
      2 C2          32.3520   -26.0050   -17.6580 ca         1 G9C      -0.082000
      3 C3          33.2770   -24.9710   -17.9460 cp         1 G9C      -0.020000
      4 C4          32.8860   -23.6130   -17.7260 ca         1 G9C       0.296000
      5 C5          31.5780   -23.3450   -17.2380 ca         1 G9C      -0.096000
      6 C6          30.6780   -24.3930   -16.9710 ca         1 G9C      -0.082000
      7 C8          33.3600   -21.3180   -17.7390 ca         1 G9C       0.397900
      8 C9          32.0840   -20.9740   -17.2690 ca         1 G9C      -0.203600
      9 C13         36.6680   -26.7130   -18.2910 ca         1 G9C      -0.065000
     10 C15         36.4350   -25.1330   -20.1210 ca         1 G9C      -0.065000
     11 C16         35.1720   -24.7580   -19.6330 ca         1 G9C      -0.094000
     12 C17         38.5790   -26.5230   -19.9820 c3         1 G9C       0.356300
     13 C21         31.7630   -19.5230   -17.0630 c          1 G9C       0.614700
     14 C23         29.9980   -17.8710   -16.3320 c3         1 G9C       0.064400
     15 C24         30.5550   -17.2810   -15.0270 ca         1 G9C       0.337300
     16 C26         31.4940   -15.4510   -13.9420 ca         1 G9C       0.344900
     17 C27         31.5490   -16.1430   -12.7200 ca         1 G9C      -0.163000
     18 C28         31.0790   -17.4630   -12.6600 ca         1 G9C      -0.071000
     19 C29         30.5710   -18.0380   -13.8360 ca         1 G9C      -0.151000
     20 C30         28.4570   -17.8640   -16.3480 c3         1 G9C      -0.103100
     21 N7          33.7510   -22.5940   -17.9590 nb         1 G9C      -0.665000
     22 C10         31.1720   -22.0180   -17.0120 ca         1 G9C      -0.034000
     23 C11         34.6320   -25.3460   -18.4640 cp         1 G9C       0.004000
     24 C12         35.4040   -26.3350   -17.8080 ca         1 G9C      -0.094000
     25 C14         37.1950   -26.1200   -19.4580 ca         1 G9C      -0.193300
     26 F18         38.6780   -26.3960   -21.3250 f          1 G9C      -0.114667
     27 F19         39.5510   -25.7550   -19.4400 f          1 G9C      -0.114667
     28 F20         38.8840   -27.8090   -19.6940 f          1 G9C      -0.114667
     29 N22         30.4960   -19.2310   -16.6060 ns         1 G9C      -0.505900
     30 N25         31.0050   -16.0020   -15.0780 nb         1 G9C      -0.667000
     31 O31         32.5790   -18.6400   -17.2840 o          1 G9C      -0.579100
     32 H1          30.3710   -26.5320   -16.9690 ha         1 G9C       0.121000
     33 H2          32.6370   -27.0420   -17.8220 ha         1 G9C       0.123000
     34 H3          29.6780   -24.1800   -16.5980 ha         1 G9C       0.118000
     35 H4          34.1070   -20.5550   -17.9520 h4         1 G9C       0.045100
     36 H5          37.2360   -27.4690   -17.7510 ha         1 G9C       0.129500
     37 H6          36.8190   -24.6510   -21.0190 ha         1 G9C       0.129500
     38 H7          34.5990   -24.0060   -20.1700 ha         1 G9C       0.125000
     39 H8          30.3340   -17.2260   -17.1570 h1         1 G9C       0.095700
     40 H9          31.8510   -14.4250   -14.0150 h4         1 G9C       0.019100
     41 H10         31.9510   -15.6540   -11.8370 ha         1 G9C       0.124000
     42 H11         31.1050   -18.0260   -11.7280 ha         1 G9C       0.118000
     43 H12         30.1940   -19.0570   -13.8290 ha         1 G9C       0.119000
     44 H13         28.0770   -16.8450   -16.2020 hc         1 G9C       0.047367
     45 H14         28.0780   -18.2330   -17.3090 hc         1 G9C       0.047367
     46 H15         28.0540   -18.4980   -15.5500 hc         1 G9C       0.047367
     47 H16         30.1690   -21.8200   -16.6400 ha         1 G9C       0.118000
     48 H17         35.0190   -26.8070   -16.9070 ha         1 G9C       0.125000
     49 H18         29.8720   -20.0120   -16.4540 hn         1 G9C       0.315500
@<TRIPOS>BOND
     1     1     2 ar  
     2     1     6 ar  
     3     1    32 1   
     4     2     3 ar  
     5     2    33 1   
     6     3     4 ar  
     7     3    23 1   
     8     4     5 ar  
     9     4    21 ar  
    10     5     6 ar  
    11     5    22 ar  
    12     6    34 1   
    13     7     8 ar  
    14     7    21 ar  
    15     7    35 1   
    16     8    13 1   
    17     8    22 ar  
    18     9    24 ar  
    19     9    25 ar  
    20     9    36 1   
    21    10    11 ar  
    22    10    25 ar  
    23    10    37 1   
    24    11    23 ar  
    25    11    38 1   
    26    12    25 1   
    27    12    26 1   
    28    12    27 1   
    29    12    28 1   
    30    13    29 1   
    31    13    31 2   
    32    14    15 1   
    33    14    20 1   
    34    14    29 1   
    35    14    39 1   
    36    15    19 ar  
    37    15    30 ar  
    38    16    17 ar  
    39    16    30 ar  
    40    16    40 1   
    41    17    18 ar  
    42    17    41 1   
    43    18    19 ar  
    44    18    42 1   
    45    19    43 1   
    46    20    44 1   
    47    20    45 1   
    48    20    46 1   
    49    22    47 1   
    50    23    24 ar  
    51    24    48 1   
    52    29    49 1   
@<TRIPOS>SUBSTRUCTURE
     1 G9C         1 TEMP              0 ****  ****    0 ROOT
