@<TRIPOS>MOLECULE
G9C
   49    52     1     0     0
SMALL
abcg2


@<TRIPOS>ATOM
      1 C1          30.8220   -25.7670   -18.0560 ca         1 G9C      -0.108000
      2 C2          32.1940   -25.9920   -18.2710 ca         1 G9C      -0.082000
      3 C3          33.1170   -24.9740   -18.2060 cp         1 G9C      -0.020000
      4 C4          32.6630   -23.6630   -17.8880 ca         1 G9C       0.296000
      5 C5          31.2790   -23.4390   -17.6810 ca         1 G9C      -0.096000
      6 C6          30.3660   -24.5100   -17.7740 ca         1 G9C      -0.082000
      7 C8          33.1440   -21.4590   -17.4990 ca         1 G9C       0.397900
      8 C9          31.7850   -21.1220   -17.2840 ca         1 G9C      -0.203600
      9 C13         36.4930   -26.6440   -18.0760 ca         1 G9C      -0.065000
     10 C15         36.5920   -24.8580   -19.6810 ca         1 G9C      -0.065000
     11 C16         35.2770   -24.5340   -19.4040 ca         1 G9C      -0.094000
     12 C17         38.6400   -26.2250   -19.3160 c3         1 G9C       0.356300
     13 C21         31.4470   -19.6910   -17.0270 c          1 G9C       0.614700
     14 C23         29.8530   -18.1130   -16.0630 c3         1 G9C       0.064400
     15 C24         30.7230   -17.3810   -15.0620 ca         1 G9C       0.337300
     16 C26         31.4590   -15.3520   -14.3160 ca         1 G9C       0.344900
     17 C27         32.1590   -15.9200   -13.2630 ca         1 G9C      -0.163000
     18 C28         32.1190   -17.3000   -13.1260 ca         1 G9C      -0.071000
     19 C29         31.3880   -18.0450   -14.0370 ca         1 G9C      -0.151000
     20 C30         28.4120   -18.1690   -15.5660 c3         1 G9C      -0.103100
     21 N7          33.5650   -22.6590   -17.7770 nb         1 G9C      -0.665000
     22 C10         30.8600   -22.1270   -17.3790 ca         1 G9C      -0.034000
     23 C11         34.5440   -25.2610   -18.4650 cp         1 G9C       0.004000
     24 C12         35.1720   -26.3160   -17.8080 ca         1 G9C      -0.094000
     25 C14         37.2070   -25.9160   -19.0170 ca         1 G9C      -0.193300
     26 F18         38.8780   -26.2700   -20.6340 f          1 G9C      -0.114667
     27 F19         39.4630   -25.2900   -18.8140 f          1 G9C      -0.114667
     28 F20         39.0320   -27.3980   -18.8110 f          1 G9C      -0.114667
     29 N22         30.3180   -19.4550   -16.3360 ns         1 G9C      -0.505900
     30 N25         30.7590   -16.0600   -15.1940 nb         1 G9C      -0.667000
     31 O31         32.1720   -18.7970   -17.4360 o          1 G9C      -0.579100
     32 H1          30.1310   -26.5970   -18.1270 ha         1 G9C       0.121000
     33 H2          32.5260   -26.9930   -18.5170 ha         1 G9C       0.123000
     34 H3          29.3110   -24.3220   -17.6170 ha         1 G9C       0.118000
     35 H4          33.9000   -20.6850   -17.4210 h4         1 G9C       0.045100
     36 H5          36.9460   -27.4670   -17.5410 ha         1 G9C       0.129500
     37 H6          37.1290   -24.2800   -20.4230 ha         1 G9C       0.129500
     38 H7          34.8120   -23.7190   -19.9420 ha         1 G9C       0.125000
     39 H8          29.8770   -17.5380   -16.9930 h1         1 G9C       0.095700
     40 H9          31.4660   -14.2770   -14.4600 h4         1 G9C       0.019100
     41 H10         32.7180   -15.2990   -12.5770 ha         1 G9C       0.124000
     42 H11         32.6490   -17.7900   -12.3190 ha         1 G9C       0.118000
     43 H12         31.3400   -19.1230   -13.9530 ha         1 G9C       0.119000
     44 H13         28.0430   -17.1620   -15.3780 hc         1 G9C       0.047367
     45 H14         27.7640   -18.6340   -16.3100 hc         1 G9C       0.047367
     46 H15         28.3390   -18.7360   -14.6370 hc         1 G9C       0.047367
     47 H16         29.7990   -21.9460   -17.2500 ha         1 G9C       0.118000
     48 H17         34.6280   -26.8890   -17.0670 ha         1 G9C       0.125000
     49 H18         29.8180   -20.2220   -15.9170 hn         1 G9C       0.315500
@<TRIPOS>BOND
     1     1     2 ar  
     2     1     6 ar  
     3     1    32 1   
     4     2     3 ar  
     5     2    33 1   
     6     3     4 ar  
     7     3    23 1   
     8     4     5 ar  
     9     4    21 ar  
    10     5     6 ar  
    11     5    22 ar  
    12     6    34 1   
    13     7     8 ar  
    14     7    21 ar  
    15     7    35 1   
    16     8    13 1   
    17     8    22 ar  
    18     9    24 ar  
    19     9    25 ar  
    20     9    36 1   
    21    10    11 ar  
    22    10    25 ar  
    23    10    37 1   
    24    11    23 ar  
    25    11    38 1   
    26    12    25 1   
    27    12    26 1   
    28    12    27 1   
    29    12    28 1   
    30    13    29 1   
    31    13    31 2   
    32    14    15 1   
    33    14    20 1   
    34    14    29 1   
    35    14    39 1   
    36    15    19 ar  
    37    15    30 ar  
    38    16    17 ar  
    39    16    30 ar  
    40    16    40 1   
    41    17    18 ar  
    42    17    41 1   
    43    18    19 ar  
    44    18    42 1   
    45    19    43 1   
    46    20    44 1   
    47    20    45 1   
    48    20    46 1   
    49    22    47 1   
    50    23    24 ar  
    51    24    48 1   
    52    29    49 1   
@<TRIPOS>SUBSTRUCTURE
     1 G9C         1 TEMP              0 ****  ****    0 ROOT
