@<TRIPOS>MOLECULE
G9D
   37    40     1     0     0
SMALL
abcg2


@<TRIPOS>ATOM
      1 N11          2.8140     0.3560     0.2160 n3         1 G9D      -0.701600
      2 N12          0.4960    -1.0380     0.3650 nc         1 G9D      -0.420300
      3 N13         -0.4570    -2.0020     0.4310 ns         1 G9D      -0.263900
      4 N14         -2.4230     2.5360    -0.3390 na         1 G9D      -0.209700
      5 OAA         -2.2810    -3.2520     0.5030 o          1 G9D      -0.553000
      6 CAB         -4.9750    -0.1140    -0.0480 ca         1 G9D      -0.107000
      7 CAC         -4.5280     1.1820    -0.2250 ca         1 G9D      -0.098000
      8 CAD         -4.0820    -1.1730     0.1470 ca         1 G9D      -0.069000
      9 CAE         -1.1030     2.2560    -0.2360 cc         1 G9D      -0.129100
     10 CAF          5.1760     0.4130     0.7820 c6         1 G9D       0.154100
     11 CAG          4.4640    -1.0660    -0.8620 c6         1 G9D       0.154100
     12 CAH          3.9000     1.2220     0.6420 c6         1 G9D       0.128300
     13 CAI          3.1720    -0.2900    -1.0350 c6         1 G9D       0.128300
     14 CAJ          1.5670     1.0690     0.1380 c3         1 G9D       0.148500
     15 OAN          5.5170    -0.2340    -0.4240 os         1 G9D      -0.452000
     16 CAO          0.3240     0.2060     0.1610 cd         1 G9D       0.432600
     17 CAP         -1.8210    -2.1270     0.3770 c          1 G9D       0.570600
     18 CAQ         -3.1520     1.3890    -0.1990 ca         1 G9D      -0.064200
     19 CAR         -0.9290     0.9060    -0.0280 cd         1 G9D      -0.240800
     20 CAS         -2.7120    -0.9640     0.1720 ca         1 G9D      -0.105600
     21 CAT         -2.2370     0.3370    -0.0020 ca         1 G9D      -0.046800
     22 HN13        -0.0200    -2.8980     0.5880 hn         1 G9D       0.340500
     23 HAB         -6.0380    -0.3150    -0.0600 ha         1 G9D       0.120000
     24 HAC         -5.2200     2.0000    -0.3760 ha         1 G9D       0.118000
     25 HAD         -4.4720    -2.1720     0.2820 ha         1 G9D       0.140000
     26 HAE         -0.3740     3.0460    -0.3170 h4         1 G9D       0.217000
     27 HAF          6.0070     1.0680     1.0480 h1         1 G9D       0.052450
     28 HAFA         5.0490    -0.3210     1.5900 h1         1 G9D       0.052450
     29 HAG          4.2990    -1.8860    -0.1490 h1         1 G9D       0.052450
     30 HAGA         4.7690    -1.5040    -1.8130 h1         1 G9D       0.052450
     31 HAH          4.0650     2.0550    -0.0630 h1         1 G9D       0.041200
     32 HAHA         3.6550     1.6630     1.6120 h1         1 G9D       0.041200
     33 HAI          2.3870    -0.9840    -1.3340 h1         1 G9D       0.041200
     34 HAIA         3.2900     0.4480    -1.8470 h1         1 G9D       0.041200
     35 HAJ          1.5020     1.7490     0.9950 h1         1 G9D       0.038700
     36 HAJA         1.5200     1.7170    -0.7550 h1         1 G9D       0.038700
     37 HN14        -2.8020     3.4580    -0.4870 hn         1 G9D       0.355000
@<TRIPOS>BOND
     1     1    12 1   
     2     1    13 1   
     3     1    14 1   
     4     2     3 1   
     5     2    16 2   
     6     3    17 1   
     7     3    22 1   
     8     4     9 1   
     9     4    18 1   
    10     4    37 1   
    11     5    17 2   
    12     6     7 ar  
    13     6     8 ar  
    14     6    23 1   
    15     7    18 ar  
    16     7    24 1   
    17     8    20 ar  
    18     8    25 1   
    19     9    19 2   
    20     9    26 1   
    21    10    12 1   
    22    10    15 1   
    23    10    27 1   
    24    10    28 1   
    25    11    13 1   
    26    11    15 1   
    27    11    29 1   
    28    11    30 1   
    29    12    31 1   
    30    12    32 1   
    31    13    33 1   
    32    13    34 1   
    33    14    16 1   
    34    14    35 1   
    35    14    36 1   
    36    16    19 1   
    37    17    20 1   
    38    18    21 ar  
    39    19    21 1   
    40    20    21 ar  
@<TRIPOS>SUBSTRUCTURE
     1 G9D         1 TEMP              0 ****  ****    0 ROOT
