@<TRIPOS>MOLECULE
G9D
   37    40     1     0     0
SMALL
No Charge or Current Charge


@<TRIPOS>ATOM
      1 N11          2.7800     0.3130     0.4860 n3         1 G9D      -0.701600
      2 N12          0.1760    -0.9970     1.8970 nc         1 G9D      -0.420300
      3 N13         -0.8950    -1.8710     1.9900 ns         1 G9D      -0.263900
      4 N14         -1.7130     2.0200    -1.1320 na         1 G9D      -0.209700
      5 OAA         -2.8340    -2.9710     1.8140 o          1 G9D      -0.553000
      6 CAB         -4.6290    -0.2870    -0.9440 ca         1 G9D      -0.107000
      7 CAC         -3.9000     0.8370    -1.3730 ca         1 G9D      -0.098000
      8 CAD         -4.0570    -1.1990    -0.0260 ca         1 G9D      -0.069000
      9 CAE         -0.5240     1.8160    -0.4090 cc         1 G9D      -0.129100
     10 CAF          5.2490     0.3750    -0.0500 c6         1 G9D       0.154100
     11 CAG          3.7030    -0.1650    -1.8190 c6         1 G9D       0.154100
     12 CAH          4.0920     0.9460     0.8230 c6         1 G9D       0.128300
     13 CAI          2.5120     0.3950    -0.9850 c6         1 G9D       0.128300
     14 CAJ          1.6560     0.8150     1.3410 c3         1 G9D       0.148500
     15 OAN          4.9320     0.5100    -1.4570 os         1 G9D      -0.452000
     16 CAO          0.2980     0.1200     1.1690 cd         1 G9D       0.432600
     17 CAP         -2.1720    -2.0040     1.4590 c          1 G9D       0.570600
     18 CAQ         -2.6100     1.0060    -0.8610 ca         1 G9D      -0.064200
     19 CAR         -0.7430     0.6370     0.3070 cd         1 G9D      -0.240800
     20 CAS         -2.7430    -1.0090     0.4830 ca         1 G9D      -0.105600
     21 CAT         -2.0560     0.1210     0.0280 ca         1 G9D      -0.046800
     22 HN13        -0.7130    -2.6450     2.6230 hn         1 G9D       0.340500
     23 HAB         -5.6370    -0.4550    -1.3180 ha         1 G9D       0.120000
     24 HAC         -4.3270     1.5480    -2.0780 ha         1 G9D       0.118000
     25 HAD         -4.6460    -2.0590     0.2870 ha         1 G9D       0.140000
     26 HAE          0.3210     2.4960    -0.4750 h4         1 G9D       0.217000
     27 HAF          6.1820     0.9170     0.1620 h1         1 G9D       0.052450
     28 HAFA         5.4090    -0.6870     0.1860 h1         1 G9D       0.052450
     29 HAG          3.8130    -1.2440    -1.6360 h1         1 G9D       0.052450
     30 HAGA         3.5120    -0.0170    -2.8910 h1         1 G9D       0.052450
     31 HAH          4.0410     2.0340     0.6710 h1         1 G9D       0.041200
     32 HAHA         4.3360     0.7790     1.8820 h1         1 G9D       0.041200
     33 HAI          1.6070    -0.1720    -1.2460 h1         1 G9D       0.041200
     34 HAIA         2.3390     1.4390    -1.2840 h1         1 G9D       0.041200
     35 HAJ          1.9440     0.7010     2.3950 h1         1 G9D       0.038700
     36 HAJA         1.5320     1.8940     1.1950 h1         1 G9D       0.038700
     37 HN14        -1.8900     2.7980    -1.7620 hn         1 G9D       0.355000
@<TRIPOS>BOND
     1     1    12 1   
     2     1    13 1   
     3     1    14 1   
     4     2     3 1   
     5     2    16 2   
     6     3    17 1   
     7     3    22 1   
     8     4     9 1   
     9     4    18 1   
    10     4    37 1   
    11     5    17 2   
    12     6     7 ar  
    13     6     8 ar  
    14     6    23 1   
    15     7    18 ar  
    16     7    24 1   
    17     8    20 ar  
    18     8    25 1   
    19     9    19 2   
    20     9    26 1   
    21    10    12 1   
    22    10    15 1   
    23    10    27 1   
    24    10    28 1   
    25    11    13 1   
    26    11    15 1   
    27    11    29 1   
    28    11    30 1   
    29    12    31 1   
    30    12    32 1   
    31    13    33 1   
    32    13    34 1   
    33    14    16 1   
    34    14    35 1   
    35    14    36 1   
    36    16    19 1   
    37    17    20 1   
    38    18    21 ar  
    39    19    21 1   
    40    20    21 ar  
@<TRIPOS>SUBSTRUCTURE
     1 G9D         1 TEMP              0 ****  ****    0 ROOT
