@<TRIPOS>MOLECULE
G9F
   51    54     1     0     0
SMALL
No Charge or Current Charge


@<TRIPOS>ATOM
      1 N11          8.5430    -0.3940    -0.3270 n3         1 G9F      -0.712600
      2 N12         -2.5550     1.9730    -0.1930 nc         1 G9F      -0.566100
      3 N13         -2.7310    -0.3120     0.0630 na         1 G9F      -0.177600
      4 N14         -4.6260    -2.7310     0.6480 ns         1 G9F      -0.511900
      5 CAA          9.0050    -0.0650     1.0430 c3         1 G9F       0.149600
      6 CAB          9.4370    -1.3710    -0.9880 c3         1 G9F       0.149600
      7 CAD         -6.2560     1.7850    -0.5170 ca         1 G9F      -0.150000
      8 CAE         -6.3930     0.3880    -0.3840 ca         1 G9F      -0.035000
      9 CAF          1.6840     1.9440     0.6280 ca         1 G9F      -0.182000
     10 CAG          1.7490    -0.2670    -0.3710 ca         1 G9F      -0.182000
     11 CAH          0.2800     1.9320     0.5720 ca         1 G9F      -0.042500
     12 CAI          0.3440    -0.2810    -0.4260 ca         1 G9F      -0.042500
     13 CAJ         -4.9860     2.3820    -0.4450 ca         1 G9F      -0.024000
     14 CAK          6.1070     0.2750     0.0430 c3         1 G9F      -0.085400
     15 CAL         -3.4950    -2.2750     1.4470 c3         1 G9F       0.098000
     16 CAM          4.6490    -0.1500    -0.2050 c3         1 G9F       0.163600
     17 CAN          7.1180    -0.8050    -0.4000 c3         1 G9F       0.168800
     18 CAO         -2.4000    -1.6500     0.5790 c3         1 G9F       0.058600
     19 OAR          3.8010     0.9190     0.2440 os         1 G9F      -0.343100
     20 CAS         -5.5060    -1.9360    -0.0430 c          1 G9F       0.587600
     21 CAT          2.4250     0.8480     0.1650 ca         1 G9F       0.166100
     22 CAU         -0.4100     0.8050     0.0710 ca         1 G9F      -0.162900
     23 CAV         -5.2670    -0.4430    -0.1510 ca         1 G9F      -0.160600
     24 CAW         -1.8870     0.8170    -0.0250 cd         1 G9F       0.479400
     25 CAX         -3.8710     1.5600    -0.2380 ca         1 G9F       0.057400
     26 CAY         -4.0030     0.2010    -0.0810 ca         1 G9F      -0.045200
     27 HN14        -4.8510    -3.7190     0.6570 hn         1 G9F       0.319500
     28 HAA          8.8920    -0.9280     1.7130 h1         1 G9F       0.031700
     29 HAAA        10.0650     0.2250     1.0350 h1         1 G9F       0.031700
     30 HAAB         8.4400     0.7770     1.4640 h1         1 G9F       0.031700
     31 HAB          9.1310    -1.5370    -2.0300 h1         1 G9F       0.031700
     32 HABA        10.4730    -1.0080    -0.9960 h1         1 G9F       0.031700
     33 HABB         9.4160    -2.3380    -0.4660 h1         1 G9F       0.031700
     34 HAD         -7.1360     2.4020    -0.6870 ha         1 G9F       0.120000
     35 HAE         -7.3880    -0.0490    -0.4530 ha         1 G9F       0.135000
     36 HAF          2.2010     2.8110     1.0300 ha         1 G9F       0.126000
     37 HAG          2.2930    -1.1240    -0.7570 ha         1 G9F       0.126000
     38 HAH         -0.2710     2.7970     0.9350 ha         1 G9F       0.124000
     39 HAI         -0.1520    -1.1380    -0.8760 ha         1 G9F       0.124000
     40 HAJ         -4.8670     3.4560    -0.5640 ha         1 G9F       0.131000
     41 HAK          6.3090     1.2030    -0.5050 hc         1 G9F       0.064700
     42 HAKA         6.2320     0.4880     1.1100 hc         1 G9F       0.064700
     43 HAL         -3.8400    -1.5530     2.2000 h1         1 G9F       0.060200
     44 HALA        -3.0780    -3.1420     1.9750 h1         1 G9F       0.060200
     45 HAM          4.5000    -0.3400    -1.2760 h1         1 G9F       0.034700
     46 HAMA         4.4370    -1.0730     0.3510 h1         1 G9F       0.034700
     47 HAN          6.8770    -1.0730    -1.4390 h1         1 G9F       0.028700
     48 HANA         6.9570    -1.7070     0.2060 h1         1 G9F       0.028700
     49 HAO         -2.1770    -2.3150    -0.2650 h1         1 G9F       0.067200
     50 HAOA        -1.4940    -1.5660     1.1910 h1         1 G9F       0.067200
     51 OAC         -6.4730    -2.4640    -0.5690 o          1 G9F      -0.562000
@<TRIPOS>BOND
     1     1     5 1   
     2     1     6 1   
     3     1    17 1   
     4     2    24 2   
     5     2    25 1   
     6     3    18 1   
     7     3    24 1   
     8     3    26 1   
     9     4    15 1   
    10     4    20 1   
    11     4    27 1   
    12     5    28 1   
    13     5    29 1   
    14     5    30 1   
    15     6    31 1   
    16     6    32 1   
    17     6    33 1   
    18     7     8 ar  
    19     7    13 ar  
    20     7    34 1   
    21     8    23 ar  
    22     8    35 1   
    23     9    11 ar  
    24     9    21 ar  
    25     9    36 1   
    26    10    12 ar  
    27    10    21 ar  
    28    10    37 1   
    29    11    22 ar  
    30    11    38 1   
    31    12    22 ar  
    32    12    39 1   
    33    13    25 ar  
    34    13    40 1   
    35    14    16 1   
    36    14    17 1   
    37    14    41 1   
    38    14    42 1   
    39    15    18 1   
    40    15    43 1   
    41    15    44 1   
    42    16    19 1   
    43    16    45 1   
    44    16    46 1   
    45    17    47 1   
    46    17    48 1   
    47    18    49 1   
    48    18    50 1   
    49    19    21 1   
    50    20    23 1   
    51    20    51 2   
    52    22    24 1   
    53    23    26 ar  
    54    25    26 ar  
@<TRIPOS>SUBSTRUCTURE
     1 G9F         1 TEMP              0 ****  ****    0 ROOT
