@<TRIPOS>MOLECULE
G9F
   51    54     1     0     0
SMALL
bcc


@<TRIPOS>ATOM
      1 N11          8.3600    -0.4590    -0.2110 n3         1 G9F      -0.712600
      2 N12         -2.5350     1.9510    -0.3200 nc         1 G9F      -0.566100
      3 N13         -2.6150    -0.2470     0.0490 na         1 G9F      -0.148300
      4 N14         -4.3760    -2.6950     0.7110 ns         1 G9F      -0.578900
      5 CAA          8.7320    -0.3060     1.1790 c3         1 G9F       0.149600
      6 CAB          9.2010    -1.4420    -0.8600 c3         1 G9F       0.149600
      7 CAD         -6.2130     1.6530    -0.4180 ca         1 G9F      -0.168000
      8 CAE         -6.2810     0.2750    -0.2170 ca         1 G9F      -0.053000
      9 CAF          1.6680     1.9960     0.5580 ca         1 G9F      -0.200000
     10 CAG          1.7800    -0.1400    -0.5500 ca         1 G9F      -0.200000
     11 CAH          0.2920     1.9510     0.5060 ca         1 G9F      -0.060500
     12 CAI          0.3940    -0.1730    -0.5940 ca         1 G9F      -0.060500
     13 CAJ         -4.9950     2.3080    -0.4680 ca         1 G9F      -0.042000
     14 CAK          6.0240     0.3520     0.0230 c3         1 G9F      -0.085400
     15 CAL         -3.2170    -2.1910     1.4090 c3         1 G9F       0.098000
     16 CAM          4.5890     0.0020    -0.3080 c3         1 G9F       0.140400
     17 CAN          6.9570    -0.7830    -0.3830 c3         1 G9F       0.168800
     18 CAO         -2.1830    -1.5570     0.4980 c3         1 G9F       0.029300
     19 OAR          3.7600     1.0650     0.1430 os         1 G9F      -0.319900
     20 CAS         -5.3430    -1.9820     0.1080 c          1 G9F       0.730100
     21 CAT          2.4290     0.9440     0.0370 ca         1 G9F       0.166100
     22 CAU         -0.3730     0.8580    -0.0590 ca         1 G9F      -0.162900
     23 CAV         -5.1470    -0.5110    -0.0320 ca         1 G9F      -0.160600
     24 CAW         -1.8330     0.8690    -0.1140 cd         1 G9F       0.479400
     25 CAX         -3.8420     1.5500    -0.2970 ca         1 G9F       0.057400
     26 CAY         -3.9190     0.1620    -0.0700 ca         1 G9F      -0.045200
     27 HN14        -4.5390    -3.6890     0.7570 hn         1 G9F       0.319500
     28 HAA          8.5720    -1.2200     1.7740 h1         1 G9F       0.031700
     29 HAAA         9.7880    -0.0440     1.2510 h1         1 G9F       0.031700
     30 HAAB         8.1660     0.4980     1.6490 h1         1 G9F       0.031700
     31 HAB          8.9640    -1.4980    -1.9230 h1         1 G9F       0.031700
     32 HABA        10.2500    -1.1540    -0.7680 h1         1 G9F       0.031700
     33 HABB         9.0960    -2.4540    -0.4390 h1         1 G9F       0.031700
     34 HAD         -7.1300     2.2130    -0.5470 ha         1 G9F       0.138000
     35 HAE         -7.2500    -0.2050    -0.2050 ha         1 G9F       0.153000
     36 HAF          2.1690     2.8420     1.0100 ha         1 G9F       0.144000
     37 HAG          2.3300    -0.9630    -0.9840 ha         1 G9F       0.144000
     38 HAH         -0.2810     2.7710     0.9190 ha         1 G9F       0.142000
     39 HAI         -0.0790    -1.0160    -1.0800 ha         1 G9F       0.142000
     40 HAJ         -4.9340     3.3750    -0.6340 ha         1 G9F       0.149000
     41 HAK          6.3190     1.2650    -0.5010 hc         1 G9F       0.064700
     42 HAKA         6.1000     0.5490     1.0950 hc         1 G9F       0.064700
     43 HAL         -3.4990    -1.4930     2.2020 h1         1 G9F       0.060200
     44 HALA        -2.7500    -3.0450     1.8940 h1         1 G9F       0.060200
     45 HAM          4.4670    -0.1410    -1.3880 h1         1 G9F       0.034700
     46 HAMA         4.3020    -0.9340     0.1850 h1         1 G9F       0.034700
     47 HAN          6.7960    -1.0060    -1.4420 h1         1 G9F       0.028700
     48 HANA         6.6790    -1.6990     0.1700 h1         1 G9F       0.028700
     49 HAO         -1.9880    -2.2140    -0.3520 h1         1 G9F       0.067200
     50 HAOA        -1.2540    -1.4360     1.0530 h1         1 G9F       0.067200
     51 OAC         -6.3570    -2.5170    -0.3230 o          1 G9F      -0.637500
@<TRIPOS>BOND
     1     1     5 1   
     2     1     6 1   
     3     1    17 1   
     4     2    24 2   
     5     2    25 1   
     6     3    18 1   
     7     3    24 1   
     8     3    26 1   
     9     4    15 1   
    10     4    20 1   
    11     4    27 1   
    12     5    28 1   
    13     5    29 1   
    14     5    30 1   
    15     6    31 1   
    16     6    32 1   
    17     6    33 1   
    18     7     8 ar  
    19     7    13 ar  
    20     7    34 1   
    21     8    23 ar  
    22     8    35 1   
    23     9    11 ar  
    24     9    21 ar  
    25     9    36 1   
    26    10    12 ar  
    27    10    21 ar  
    28    10    37 1   
    29    11    22 ar  
    30    11    38 1   
    31    12    22 ar  
    32    12    39 1   
    33    13    25 ar  
    34    13    40 1   
    35    14    16 1   
    36    14    17 1   
    37    14    41 1   
    38    14    42 1   
    39    15    18 1   
    40    15    43 1   
    41    15    44 1   
    42    16    19 1   
    43    16    45 1   
    44    16    46 1   
    45    17    47 1   
    46    17    48 1   
    47    18    49 1   
    48    18    50 1   
    49    19    21 1   
    50    20    23 1   
    51    20    51 2   
    52    22    24 1   
    53    23    26 ar  
    54    25    26 ar  
@<TRIPOS>SUBSTRUCTURE
     1 G9F         1 TEMP              0 ****  ****    0 ROOT
