@<TRIPOS>MOLECULE
G9G
   40    43     1     0     0
SMALL
abcg2


@<TRIPOS>ATOM
      1 N11          5.1290    -0.8290    -0.0410 n3         1 G9G      -0.711600
      2 N12          2.4550     0.2890    -0.1170 nh         1 G9G      -0.761300
      3 N13         -2.7680     2.0100     0.1820 ns         1 G9G      -0.373100
      4 N14          0.1820    -0.1010    -0.0860 nb         1 G9G      -0.727000
      5 CAA          5.4710    -1.2270     1.3090 c3         1 G9G       0.151100
      6 OAB         -4.9810     1.5820     0.1670 o          1 G9G      -0.556000
      7 CAC         -4.2380    -2.5300    -0.3120 ca         1 G9G      -0.118000
      8 CAD         -2.9100    -2.9560    -0.3770 ca         1 G9G      -0.092000
      9 CAE          0.8960     2.1520     0.1590 ca         1 G9G      -0.177000
     10 CAF         -4.5220    -1.1900    -0.1560 ca         1 G9G      -0.057000
     11 CAG         -1.8790    -2.0450    -0.2880 ca         1 G9G      -0.087000
     12 CAH         -0.4070     2.5710     0.2200 ca         1 G9G      -0.088000
     13 CAI          4.0050    -1.5530    -0.6010 c6         1 G9G       0.155800
     14 CAJ          4.8910     0.5910    -0.1920 c6         1 G9G       0.155800
     15 CAK          2.6490    -1.1530    -0.0310 c6         1 G9G       0.175300
     16 CAL          3.5680     1.0740     0.3950 c6         1 G9G       0.175300
     17 CAO          1.1730     0.7710    -0.0070 ca         1 G9G       0.593900
     18 CAP         -3.8300     1.1670     0.1030 c          1 G9G       0.576600
     19 CAQ         -1.4400     1.6360     0.1220 ca         1 G9G      -0.008400
     20 CAR         -3.4870    -0.2560    -0.0640 ca         1 G9G      -0.145600
     21 CAS         -2.1520    -0.6820    -0.1300 ca         1 G9G      -0.099500
     22 CAT         -1.0870     0.3020    -0.0330 ca         1 G9G       0.401500
     23 HN13        -2.9780     2.9930     0.3000 hn         1 G9G       0.326500
     24 HAA          5.7200    -2.2890     1.3230 h1         1 G9G       0.032033
     25 HAAA         6.3550    -0.6760     1.6350 h1         1 G9G       0.032033
     26 HAAB         4.6890    -1.0640     2.0620 h1         1 G9G       0.032033
     27 HAC         -5.0430    -3.2500    -0.3830 ha         1 G9G       0.119000
     28 HAD         -2.6880    -4.0090    -0.4990 ha         1 G9G       0.116000
     29 HAE          1.6800     2.8890     0.2340 ha         1 G9G       0.125000
     30 HAF         -5.5490    -0.8540    -0.1020 ha         1 G9G       0.138000
     31 HAG         -0.8500    -2.3730    -0.3390 ha         1 G9G       0.135000
     32 HAH         -0.6300     3.6240     0.3450 ha         1 G9G       0.122000
     33 HAI          3.9930    -1.3790    -1.6820 h1         1 G9G       0.061200
     34 HAIA         4.1470    -2.6260    -0.4510 h1         1 G9G       0.061200
     35 HAJ          5.7060     1.1510     0.2730 h1         1 G9G       0.061200
     36 HAJA         4.9060     0.8300    -1.2610 h1         1 G9G       0.061200
     37 HAK          2.5450    -1.4930     1.0090 h1         1 G9G       0.048700
     38 HAKA         1.8710    -1.6560    -0.5990 h1         1 G9G       0.048700
     39 HAL          3.4570     2.1190     0.1160 h1         1 G9G       0.048700
     40 HALA         3.5940     1.0360     1.4930 h1         1 G9G       0.048700
@<TRIPOS>BOND
     1     1     5 1   
     2     1    13 1   
     3     1    14 1   
     4     2    15 1   
     5     2    16 1   
     6     2    17 1   
     7     3    18 1   
     8     3    19 1   
     9     3    23 1   
    10     4    17 ar  
    11     4    22 ar  
    12     5    24 1   
    13     5    25 1   
    14     5    26 1   
    15     6    18 2   
    16     7     8 ar  
    17     7    10 ar  
    18     7    27 1   
    19     8    11 ar  
    20     8    28 1   
    21     9    12 ar  
    22     9    17 ar  
    23     9    29 1   
    24    10    20 ar  
    25    10    30 1   
    26    11    21 ar  
    27    11    31 1   
    28    12    19 ar  
    29    12    32 1   
    30    13    15 1   
    31    13    33 1   
    32    13    34 1   
    33    14    16 1   
    34    14    35 1   
    35    14    36 1   
    36    15    37 1   
    37    15    38 1   
    38    16    39 1   
    39    16    40 1   
    40    18    20 1   
    41    19    22 ar  
    42    20    21 ar  
    43    21    22 1   
@<TRIPOS>SUBSTRUCTURE
     1 G9G         1 TEMP              0 ****  ****    0 ROOT
