@<TRIPOS>MOLECULE
G9G
   40    43     1     0     0
SMALL
No Charge or Current Charge


@<TRIPOS>ATOM
      1 N11          5.2180    -0.9160    -0.0700 n3         1 G9G      -0.711600
      2 N12          2.4270     0.1780     0.0290 nh         1 G9G      -0.761300
      3 N13         -2.8230     1.9870     0.4680 ns         1 G9G      -0.373100
      4 N14          0.1340    -0.1660    -0.0850 nb         1 G9G      -0.727000
      5 CAA          5.7540    -0.8380     1.3100 c3         1 G9G       0.151100
      6 OAB         -5.0530     1.6390     0.3470 o          1 G9G      -0.556000
      7 CAC         -4.3690    -2.4560    -0.7640 ca         1 G9G      -0.118000
      8 CAD         -3.0420    -2.8930    -0.8680 ca         1 G9G      -0.092000
      9 CAE          0.8760     2.0460     0.5300 ca         1 G9G      -0.177000
     10 CAF         -4.6430    -1.1280    -0.4040 ca         1 G9G      -0.057000
     11 CAG         -1.9850    -2.0050    -0.6130 ca         1 G9G      -0.087000
     12 CAH         -0.4480     2.4940     0.6370 ca         1 G9G      -0.088000
     13 CAI          4.0280    -1.8120    -0.1970 c6         1 G9G       0.155800
     14 CAJ          4.8840     0.4170    -0.6560 c6         1 G9G       0.155800
     15 CAK          2.7390    -1.2280     0.4690 c6         1 G9G       0.175300
     16 CAL          3.6250     1.0810    -0.0060 c6         1 G9G       0.175300
     17 CAO          1.1240     0.7070     0.1660 ca         1 G9G       0.593900
     18 CAP         -3.9170     1.2010     0.2410 c          1 G9G       0.576600
     19 CAQ         -1.4770     1.5800     0.3730 ca         1 G9G      -0.008400
     20 CAR         -3.5920    -0.2220    -0.1440 ca         1 G9G      -0.145600
     21 CAS         -2.2370    -0.6580    -0.2480 ca         1 G9G      -0.099500
     22 CAT         -1.1580     0.2420     0.0110 ca         1 G9G       0.401500
     23 HN13        -3.0110     2.9480     0.7290 hn         1 G9G       0.326500
     24 HAA          6.0300    -1.8370     1.6740 h1         1 G9G       0.032033
     25 HAAA         6.6540    -0.2100     1.3390 h1         1 G9G       0.032033
     26 HAAB         5.0190    -0.4130     2.0060 h1         1 G9G       0.032033
     27 HAC         -5.1870    -3.1460    -0.9620 ha         1 G9G       0.119000
     28 HAD         -2.8290    -3.9230    -1.1470 ha         1 G9G       0.116000
     29 HAE          1.6900     2.7310     0.7400 ha         1 G9G       0.125000
     30 HAF         -5.6800    -0.8040    -0.3280 ha         1 G9G       0.138000
     31 HAG         -0.9660    -2.3760    -0.7030 ha         1 G9G       0.135000
     32 HAH         -0.6650     3.5220     0.9190 ha         1 G9G       0.122000
     33 HAI          3.8090    -1.9840    -1.2610 h1         1 G9G       0.061200
     34 HAIA         4.2390    -2.8000     0.2390 h1         1 G9G       0.061200
     35 HAJ          5.7370     1.1050    -0.5660 h1         1 G9G       0.061200
     36 HAJA         4.6890     0.3060    -1.7330 h1         1 G9G       0.061200
     37 HAK          2.8620    -1.2500     1.5610 h1         1 G9G       0.048700
     38 HAKA         1.9130    -1.9140     0.2300 h1         1 G9G       0.048700
     39 HAL          3.3980     1.9890    -0.5840 h1         1 G9G       0.048700
     40 HALA         3.8770     1.4010     1.0160 h1         1 G9G       0.048700
@<TRIPOS>BOND
     1     1     5 1   
     2     1    13 1   
     3     1    14 1   
     4     2    15 1   
     5     2    16 1   
     6     2    17 1   
     7     3    18 1   
     8     3    19 1   
     9     3    23 1   
    10     4    17 ar  
    11     4    22 ar  
    12     5    24 1   
    13     5    25 1   
    14     5    26 1   
    15     6    18 2   
    16     7     8 ar  
    17     7    10 ar  
    18     7    27 1   
    19     8    11 ar  
    20     8    28 1   
    21     9    12 ar  
    22     9    17 ar  
    23     9    29 1   
    24    10    20 ar  
    25    10    30 1   
    26    11    21 ar  
    27    11    31 1   
    28    12    19 ar  
    29    12    32 1   
    30    13    15 1   
    31    13    33 1   
    32    13    34 1   
    33    14    16 1   
    34    14    35 1   
    35    14    36 1   
    36    15    37 1   
    37    15    38 1   
    38    16    39 1   
    39    16    40 1   
    40    18    20 1   
    41    19    22 ar  
    42    20    21 ar  
    43    21    22 1   
@<TRIPOS>SUBSTRUCTURE
     1 G9G         1 TEMP              0 ****  ****    0 ROOT
