@<TRIPOS>MOLECULE
G9H
   34    36     1     0     0
SMALL
No Charge or Current Charge


@<TRIPOS>ATOM
      1 N11          3.7610     0.1290     0.3670 n3         1 G9H      -0.692600
      2 N12          1.0050     1.9050    -0.2110 nc         1 G9H      -0.540100
      3 N13          0.3230    -0.2890    -0.4230 na         1 G9H      -0.183600
      4 N14         -1.9330    -2.4220     0.0680 ns         1 G9H      -0.512900
      5 CAA          3.3360    -0.9030     1.3400 c3         1 G9H       0.145600
      6 CAB          5.1700    -0.0370    -0.0510 c3         1 G9H       0.145600
      7 CAD         -2.6000     2.4850     0.5110 ca         1 G9H      -0.153000
      8 CAE         -3.0430     1.1520     0.3840 ca         1 G9H      -0.033000
      9 CAF         -1.2420     2.8000     0.3320 ca         1 G9H      -0.019000
     10 CAG         -0.5200    -2.4770     0.4230 c3         1 G9H       0.100000
     11 CAH          0.3570    -1.7450    -0.5930 c3         1 G9H       0.057600
     12 CAI          2.8310     0.2810    -0.7990 c3         1 G9H       0.151500
     13 CAL         -2.7210    -1.3020    -0.0470 c          1 G9H       0.587600
     14 CAM         -2.1400     0.0960     0.0890 ca         1 G9H      -0.162600
     15 CAN          1.3830     0.6390    -0.4700 cd         1 G9H       0.412800
     16 CAO         -0.3500     1.7650     0.0260 ca         1 G9H       0.051400
     17 CAP         -0.7790     0.4620    -0.0850 ca         1 G9H      -0.044200
     18 HN14        -2.4230    -3.3010    -0.0540 hn         1 G9H       0.319500
     19 HAA          4.0130    -0.9220     2.2040 h1         1 G9H       0.033533
     20 HAAA         2.3240    -0.7000     1.7150 h1         1 G9H       0.033533
     21 HAAB         3.3400    -1.9010     0.8800 h1         1 G9H       0.033533
     22 HAB          5.3060    -0.9750    -0.6050 h1         1 G9H       0.033533
     23 HABA         5.4850     0.7940    -0.6970 h1         1 G9H       0.033533
     24 HABB         5.8350    -0.0540     0.8230 h1         1 G9H       0.033533
     25 HAD         -3.3120     3.2730     0.7430 ha         1 G9H       0.120000
     26 HAE         -4.1020     0.9420     0.5240 ha         1 G9H       0.135000
     27 HAF         -0.8920     3.8260     0.4190 ha         1 G9H       0.132000
     28 HAG         -0.3740    -2.0550     1.4260 h1         1 G9H       0.058700
     29 HAGA        -0.2200    -3.5330     0.4540 h1         1 G9H       0.058700
     30 HAH          0.0410    -1.9990    -1.6130 h1         1 G9H       0.064200
     31 HAHA         1.3890    -2.0930    -0.4660 h1         1 G9H       0.064200
     32 HAI          3.2110     1.0710    -1.4600 h1         1 G9H       0.049200
     33 HAIA         2.8340    -0.6390    -1.3970 h1         1 G9H       0.049200
     34 OAC         -3.9100    -1.4680    -0.2710 o          1 G9H      -0.563000
@<TRIPOS>BOND
     1     1     5 1   
     2     1     6 1   
     3     1    12 1   
     4     2    15 2   
     5     2    16 1   
     6     3    11 1   
     7     3    15 1   
     8     3    17 1   
     9     4    10 1   
    10     4    13 1   
    11     4    18 1   
    12     5    19 1   
    13     5    20 1   
    14     5    21 1   
    15     6    22 1   
    16     6    23 1   
    17     6    24 1   
    18     7     8 ar  
    19     7     9 ar  
    20     7    25 1   
    21     8    14 ar  
    22     8    26 1   
    23     9    16 ar  
    24     9    27 1   
    25    10    11 1   
    26    10    28 1   
    27    10    29 1   
    28    11    30 1   
    29    11    31 1   
    30    12    15 1   
    31    12    32 1   
    32    12    33 1   
    33    13    14 1   
    34    13    34 2   
    35    14    17 ar  
    36    16    17 ar  
@<TRIPOS>SUBSTRUCTURE
     1 G9H         1 TEMP              0 ****  ****    0 ROOT
