@<TRIPOS>MOLECULE
G9H
   34    36     1     0     0
SMALL
abcg2


@<TRIPOS>ATOM
      1 N11          3.6890     0.2310     0.3230 n3         1 G9H      -0.692600
      2 N12          1.0720     1.7290    -0.1790 nc         1 G9H      -0.540100
      3 N13          0.3390    -0.3580    -0.4240 na         1 G9H      -0.183600
      4 N14         -2.0000    -2.3600    -0.0870 ns         1 G9H      -0.512900
      5 CAA          3.3570    -0.6860     1.3920 c3         1 G9H       0.145600
      6 CAB          5.0680     0.0750    -0.0880 c3         1 G9H       0.145600
      7 CAD         -2.4650     2.4330     0.6180 ca         1 G9H      -0.153000
      8 CAE         -2.9460     1.1350     0.4360 ca         1 G9H      -0.033000
      9 CAF         -1.1270     2.7320     0.4330 ca         1 G9H      -0.019000
     10 CAG         -0.6210    -2.4740     0.3260 c3         1 G9H       0.100000
     11 CAH          0.3590    -1.7940    -0.6110 c3         1 G9H       0.057600
     12 CAI          2.7980     0.0860    -0.8120 c3         1 G9H       0.151500
     13 CAL         -2.7630    -1.2540    -0.1360 c          1 G9H       0.587600
     14 CAM         -2.1170     0.0710     0.0900 ca         1 G9H      -0.162600
     15 CAN          1.4030     0.5030    -0.4690 cd         1 G9H       0.412800
     16 CAO         -0.2730     1.6940     0.0760 ca         1 G9H       0.051400
     17 CAP         -0.7610     0.3820    -0.0790 ca         1 G9H      -0.044200
     18 HN14        -2.4850    -3.2220    -0.2810 hn         1 G9H       0.319500
     19 HAA          4.0260    -0.5230     2.2380 h1         1 G9H       0.033533
     20 HAAA         2.3390    -0.5180     1.7490 h1         1 G9H       0.033533
     21 HAAB         3.4430    -1.7440     1.0970 h1         1 G9H       0.033533
     22 HAB          5.2950    -0.9280    -0.4790 h1         1 G9H       0.033533
     23 HABA         5.3140     0.8010    -0.8640 h1         1 G9H       0.033533
     24 HABB         5.7290     0.2570     0.7610 h1         1 G9H       0.033533
     25 HAD         -3.1580     3.2160     0.8980 ha         1 G9H       0.120000
     26 HAE         -4.0020     0.9480     0.5670 ha         1 G9H       0.135000
     27 HAF         -0.7510     3.7390     0.5590 ha         1 G9H       0.132000
     28 HAG         -0.4760    -2.1090     1.3460 h1         1 G9H       0.058700
     29 HAGA        -0.3900    -3.5360     0.3380 h1         1 G9H       0.058700
     30 HAH          0.1310    -2.0490    -1.6470 h1         1 G9H       0.064200
     31 HAHA         1.3600    -2.1600    -0.3910 h1         1 G9H       0.064200
     32 HAI          3.1460     0.7450    -1.6120 h1         1 G9H       0.049200
     33 HAIA         2.8130    -0.9310    -1.2320 h1         1 G9H       0.049200
     34 OAC         -3.9640    -1.3240    -0.3680 o          1 G9H      -0.563000
@<TRIPOS>BOND
     1     1     5 1   
     2     1     6 1   
     3     1    12 1   
     4     2    15 2   
     5     2    16 1   
     6     3    11 1   
     7     3    15 1   
     8     3    17 1   
     9     4    10 1   
    10     4    13 1   
    11     4    18 1   
    12     5    19 1   
    13     5    20 1   
    14     5    21 1   
    15     6    22 1   
    16     6    23 1   
    17     6    24 1   
    18     7     8 ar  
    19     7     9 ar  
    20     7    25 1   
    21     8    14 ar  
    22     8    26 1   
    23     9    16 ar  
    24     9    27 1   
    25    10    11 1   
    26    10    28 1   
    27    10    29 1   
    28    11    30 1   
    29    11    31 1   
    30    12    15 1   
    31    12    32 1   
    32    12    33 1   
    33    13    14 1   
    34    13    34 2   
    35    14    17 ar  
    36    16    17 ar  
@<TRIPOS>SUBSTRUCTURE
     1 G9H         1 TEMP              0 ****  ****    0 ROOT
