@<TRIPOS>MOLECULE
G9I
   54    58     1     0     0
SMALL
No Charge or Current Charge


@<TRIPOS>ATOM
      1 N11          6.7800    -0.0360     0.1280 n3         1 G9I      -0.716600
      2 N12         -2.7040    -2.1340    -0.1220 nc         1 G9I      -0.566100
      3 N13         -3.0310     0.0890     0.3950 na         1 G9I      -0.182600
      4 N14         -4.8790     2.6170     0.1640 ns         1 G9I      -0.511900
      5 CAB         -6.3130    -1.9900    -1.0220 ca         1 G9I      -0.152000
      6 CAC         -6.5410    -0.6340    -0.7070 ca         1 G9I      -0.034000
      7 CAD          2.5380    -1.4870    -0.1150 ca         1 G9I      -0.110000
      8 CAE          2.1710     0.8220     0.5470 ca         1 G9I      -0.110000
      9 CAF          3.8800    -1.3890     0.2900 ca         1 G9I      -0.094500
     10 CAG          3.5130     0.9200     0.9520 ca         1 G9I      -0.094500
     11 CAH         -5.0360    -2.5520    -0.8560 ca         1 G9I      -0.022000
     12 CAI          8.8830     0.1550    -0.8890 c5         1 G9I      -0.078900
     13 CAJ          7.8250     0.9200    -1.7480 c5         1 G9I      -0.078900
     14 CAK         -3.4660     2.4820    -0.1700 c3         1 G9I       0.099000
     15 CAM         -0.6940    -0.9460     0.7340 c3         1 G9I      -0.095700
     16 CAN          8.2070     0.0230     0.5010 c5         1 G9I       0.157300
     17 CAO          6.6300     1.1220    -0.7770 c5         1 G9I       0.157300
     18 CAP         -2.7510     1.4860     0.7450 c3         1 G9I       0.059600
     19 CAQ          5.8350    -0.0850     1.2650 c3         1 G9I       0.215100
     20 CAT         -5.8460     1.6410     0.0990 c          1 G9I       0.587600
     21 CAU          1.6760    -0.3810     0.0100 ca         1 G9I      -0.085300
     22 CAV          4.3770    -0.1860     0.8260 ca         1 G9I      -0.082300
     23 CAW         -5.4950     0.2010    -0.2340 ca         1 G9I      -0.161600
     24 CAX         -2.1480    -1.0030     0.3400 cd         1 G9I       0.418800
     25 CAY         -4.0050    -1.7370    -0.3740 ca         1 G9I       0.055400
     26 CAZ         -4.2210    -0.4090    -0.0810 ca         1 G9I      -0.042200
     27 HN14        -5.2200     3.5390     0.4090 hn         1 G9I       0.318500
     28 HAB         -7.1310    -2.6060    -1.3890 ha         1 G9I       0.120000
     29 HAC         -7.5430    -0.2310    -0.8410 ha         1 G9I       0.136000
     30 HAD          2.1680    -2.4240    -0.5260 ha         1 G9I       0.109500
     31 HAE          1.5150     1.6840     0.6520 ha         1 G9I       0.109500
     32 HAF          4.5400    -2.2480     0.1850 ha         1 G9I       0.118500
     33 HAG          3.8830     1.8570     1.3630 ha         1 G9I       0.118500
     34 HAH         -4.8530    -3.5980    -1.0860 ha         1 G9I       0.131000
     35 HAI          9.0900    -0.8320    -1.3180 hc         1 G9I       0.046950
     36 HAIA         9.8380     0.6870    -0.8270 hc         1 G9I       0.046950
     37 HAJ          8.2030     1.8760    -2.1250 hc         1 G9I       0.046950
     38 HAJA         7.5270     0.3250    -2.6180 hc         1 G9I       0.046950
     39 HAK         -3.3620     2.1760    -1.2200 h1         1 G9I       0.058700
     40 HAKA        -2.9960     3.4670    -0.0570 h1         1 G9I       0.058700
     41 HAL          0.1240    -1.1930    -1.2570 hc         1 G9I       0.053700
     42 HALA        -0.1300     0.4810    -0.8020 hc         1 G9I       0.053700
     43 HAM         -0.3640    -1.9330     1.0780 hc         1 G9I       0.068700
     44 HAMA        -0.5660    -0.2700     1.5880 hc         1 G9I       0.068700
     45 HAN          8.4200     0.8990     1.1310 h1         1 G9I       0.035950
     46 HANA         8.5400    -0.8750     1.0390 h1         1 G9I       0.035950
     47 HAO          5.6670     1.1250    -1.3070 h1         1 G9I       0.035950
     48 HAOA         6.7220     2.0710    -0.2290 h1         1 G9I       0.035950
     49 HAP         -3.0390     1.6630     1.7890 h1         1 G9I       0.065200
     50 HAPA        -1.6720     1.6600     0.6620 h1         1 G9I       0.065200
     51 HAQ          6.0640    -0.9540     1.8960 h1         1 G9I       0.036700
     52 HAQA         5.9600     0.8070     1.8950 h1         1 G9I       0.036700
     53 CAL          0.2210    -0.4870    -0.4220 c3         1 G9I      -0.029100
     54 OAA         -6.9990     1.9700     0.3290 o          1 G9I      -0.563000
@<TRIPOS>BOND
     1     1    16 1   
     2     1    17 1   
     3     1    19 1   
     4     2    24 2   
     5     2    25 1   
     6     3    18 1   
     7     3    24 1   
     8     3    26 1   
     9     4    14 1   
    10     4    20 1   
    11     4    27 1   
    12     5     6 ar  
    13     5    11 ar  
    14     5    28 1   
    15     6    23 ar  
    16     6    29 1   
    17     7     9 ar  
    18     7    21 ar  
    19     7    30 1   
    20     8    10 ar  
    21     8    21 ar  
    22     8    31 1   
    23     9    22 ar  
    24     9    32 1   
    25    10    22 ar  
    26    10    33 1   
    27    11    25 ar  
    28    11    34 1   
    29    12    13 1   
    30    12    16 1   
    31    12    35 1   
    32    12    36 1   
    33    13    17 1   
    34    13    37 1   
    35    13    38 1   
    36    14    18 1   
    37    14    39 1   
    38    14    40 1   
    39    15    24 1   
    40    15    43 1   
    41    15    44 1   
    42    15    53 1   
    43    16    45 1   
    44    16    46 1   
    45    17    47 1   
    46    17    48 1   
    47    18    49 1   
    48    18    50 1   
    49    19    22 1   
    50    19    51 1   
    51    19    52 1   
    52    20    23 1   
    53    20    54 2   
    54    21    53 1   
    55    23    26 ar  
    56    25    26 ar  
    57    41    53 1   
    58    42    53 1   
@<TRIPOS>SUBSTRUCTURE
     1 G9I         1 TEMP              0 ****  ****    0 ROOT
