@<TRIPOS>MOLECULE
G9I
   54    58     1     0     0
SMALL
bcc


@<TRIPOS>ATOM
      1 N11          6.6700    -0.0390     0.1030 n3         1 G9I      -0.716600
      2 N12         -2.7210    -2.1290     0.0400 nc         1 G9I      -0.566100
      3 N13         -2.9510     0.0590     0.3670 na         1 G9I      -0.153300
      4 N14         -4.7360     2.5630     0.1410 ns         1 G9I      -0.578900
      5 CAB         -6.2870    -1.9340    -0.9110 ca         1 G9I      -0.170000
      6 CAC         -6.4560    -0.5700    -0.6740 ca         1 G9I      -0.052000
      7 CAD          2.5770    -1.3960    -0.3320 ca         1 G9I      -0.128000
      8 CAE          2.0560     0.7190     0.6500 ca         1 G9I      -0.128000
      9 CAF          3.8990    -1.2560     0.0650 ca         1 G9I      -0.112500
     10 CAG          3.3780     0.8570     1.0510 ca         1 G9I      -0.112500
     11 CAH         -5.0670    -2.5510    -0.6950 ca         1 G9I      -0.040000
     12 CAI          8.8220     0.2000    -0.7970 c5         1 G9I      -0.078900
     13 CAJ          7.8140     0.9710    -1.6760 c5         1 G9I      -0.078900
     14 CAK         -3.3540     2.3880    -0.2390 c3         1 G9I       0.099000
     15 CAM         -0.6840    -0.9330     0.7680 c3         1 G9I      -0.095700
     16 CAN          8.0650    -0.0570     0.5060 c5         1 G9I       0.157300
     17 CAO          6.5630     1.0890    -0.8040 c5         1 G9I       0.157300
     18 CAP         -2.5870     1.4310     0.6530 c3         1 G9I       0.030300
     19 CAQ          5.7490     0.0040     1.2130 c3         1 G9I       0.215100
     20 CAT         -5.7420     1.6720     0.0600 c          1 G9I       0.730100
     21 CAU          1.6360    -0.4110    -0.0460 ca         1 G9I      -0.085300
     22 CAV          4.3160    -0.1300     0.7690 ca         1 G9I      -0.082300
     23 CAW         -5.4160     0.2490    -0.2390 ca         1 G9I      -0.161600
     24 CAX         -2.1240    -1.0300     0.4030 cd         1 G9I       0.418800
     25 CAY         -4.0090    -1.7650    -0.2560 ca         1 G9I       0.055400
     26 CAZ         -4.1810    -0.3820    -0.0480 ca         1 G9I      -0.042200
     27 HN14        -5.0210     3.5010     0.3760 hn         1 G9I       0.318500
     28 HAB         -7.1310    -2.5160    -1.2560 ha         1 G9I       0.138000
     29 HAC         -7.4320    -0.1310    -0.8280 ha         1 G9I       0.154000
     30 HAD          2.2720    -2.2850    -0.8730 ha         1 G9I       0.127500
     31 HAE          1.3450     1.5050     0.8780 ha         1 G9I       0.127500
     32 HAF          4.6160    -2.0330    -0.1740 ha         1 G9I       0.136500
     33 HAG          3.6840     1.7480     1.5880 ha         1 G9I       0.136500
     34 HAH         -4.9340    -3.6130    -0.8600 ha         1 G9I       0.149000
     35 HAI          9.1070    -0.7400    -1.2710 hc         1 G9I       0.046950
     36 HAIA         9.7400     0.7610    -0.6190 hc         1 G9I       0.046950
     37 HAJ          8.1840     1.9520    -1.9740 hc         1 G9I       0.046950
     38 HAJA         7.5960     0.4190    -2.5910 hc         1 G9I       0.046950
     39 HAK         -3.2600     2.0780    -1.2840 h1         1 G9I       0.058700
     40 HAKA        -2.8860     3.3670    -0.1610 h1         1 G9I       0.058700
     41 HAL          0.0910    -1.3430    -1.2010 hc         1 G9I       0.053700
     42 HALA        -0.1640     0.3610    -0.8950 hc         1 G9I       0.053700
     43 HAM         -0.3720    -1.9030     1.1570 hc         1 G9I       0.068700
     44 HAMA        -0.5390    -0.2090     1.5720 hc         1 G9I       0.068700
     45 HAN          8.2830     0.7410     1.2370 h1         1 G9I       0.035950
     46 HANA         8.3220    -1.0080     0.9760 h1         1 G9I       0.035950
     47 HAO          5.6360     1.0510    -1.3790 h1         1 G9I       0.035950
     48 HAOA         6.5660     2.0460    -0.2540 h1         1 G9I       0.035950
     49 HAP         -2.7620     1.6660     1.7040 h1         1 G9I       0.065200
     50 HAPA        -1.5230     1.5540     0.4560 h1         1 G9I       0.065200
     51 HAQ          5.9920    -0.8230     1.8880 h1         1 G9I       0.036700
     52 HAQA         5.8620     0.9290     1.8040 h1         1 G9I       0.036700
     53 CAL          0.1940    -0.5670    -0.4410 c3         1 G9I      -0.029100
     54 OAA         -6.9040     2.0140     0.2460 o          1 G9I      -0.638500
@<TRIPOS>BOND
     1     1    16 1   
     2     1    17 1   
     3     1    19 1   
     4     2    24 2   
     5     2    25 1   
     6     3    18 1   
     7     3    24 1   
     8     3    26 1   
     9     4    14 1   
    10     4    20 1   
    11     4    27 1   
    12     5     6 ar  
    13     5    11 ar  
    14     5    28 1   
    15     6    23 ar  
    16     6    29 1   
    17     7     9 ar  
    18     7    21 ar  
    19     7    30 1   
    20     8    10 ar  
    21     8    21 ar  
    22     8    31 1   
    23     9    22 ar  
    24     9    32 1   
    25    10    22 ar  
    26    10    33 1   
    27    11    25 ar  
    28    11    34 1   
    29    12    13 1   
    30    12    16 1   
    31    12    35 1   
    32    12    36 1   
    33    13    17 1   
    34    13    37 1   
    35    13    38 1   
    36    14    18 1   
    37    14    39 1   
    38    14    40 1   
    39    15    24 1   
    40    15    43 1   
    41    15    44 1   
    42    15    53 1   
    43    16    45 1   
    44    16    46 1   
    45    17    47 1   
    46    17    48 1   
    47    18    49 1   
    48    18    50 1   
    49    19    22 1   
    50    19    51 1   
    51    19    52 1   
    52    20    23 1   
    53    20    54 2   
    54    21    53 1   
    55    23    26 ar  
    56    25    26 ar  
    57    41    53 1   
    58    42    53 1   
@<TRIPOS>SUBSTRUCTURE
     1 G9I         1 TEMP              0 ****  ****    0 ROOT
