@<TRIPOS>MOLECULE
G9J
   43    46     1     0     0
SMALL
No Charge or Current Charge


@<TRIPOS>ATOM
      1 C1           3.5260    -0.9680     2.0880 c3         1 G9J      -0.055900
      2 C2           2.7270    -1.0220     0.7900 ce         1 G9J      -0.013400
      3 C3           2.5140     0.0950     0.0360 cf         1 G9J      -0.107400
      4 C4           1.7180    -0.0440    -1.2770 c6         1 G9J       0.264800
      5 O5           1.7890    -1.3710    -1.8490 os         1 G9J      -0.331100
      6 C6           1.8070    -2.4700    -1.0190 ca         1 G9J       0.102100
      7 C7           2.2590    -2.3600     0.3150 ca         1 G9J      -0.085800
      8 C8           2.2430    -3.5080     1.1410 ca         1 G9J      -0.164000
      9 C9           1.8120    -4.7430     0.6280 ca         1 G9J       0.112100
     10 C10          1.3940    -4.8470    -0.7080 ca         1 G9J      -0.110000
     11 C11          1.3930    -3.7100    -1.5320 ca         1 G9J      -0.096000
     12 O12          1.8000    -5.8500     1.4250 oh         1 G9J      -0.533100
     13 C13          0.2360     0.3370    -1.1370 ca         1 G9J      -0.101300
     14 C14         -0.3480     1.2350    -2.0550 ca         1 G9J      -0.087000
     15 C15         -1.7010     1.5970    -1.9330 ca         1 G9J      -0.085500
     16 C16         -2.4780     1.0650    -0.8920 ca         1 G9J       0.205000
     17 C17         -1.9080     0.1720     0.0260 ca         1 G9J      -0.085500
     18 C18         -0.5550    -0.1920    -0.0940 ca         1 G9J      -0.087000
     19 I19         -4.5620     1.6250    -0.7050 i          1 G9J      -0.315000
     20 C20          2.8700     1.4910     0.3600 ca         1 G9J      -0.002800
     21 C21          2.4260     2.0650     1.5680 ca         1 G9J      -0.136000
     22 C22          2.7470     3.3960     1.8860 ca         1 G9J      -0.074000
     23 C23          3.5160     4.1620     0.9950 ca         1 G9J      -0.140000
     24 C24          3.9620     3.5980    -0.2090 ca         1 G9J       0.141100
     25 C25          3.6410     2.2690    -0.5280 ca         1 G9J      -0.198000
     26 O26          4.7120     4.3450    -1.0670 oh         1 G9J      -0.533100
     27 H1           4.2150    -1.8160     2.1720 hc         1 G9J       0.049033
     28 H2           4.1440    -0.0660     2.1570 hc         1 G9J       0.049033
     29 H3           2.8630    -0.9830     2.9610 hc         1 G9J       0.049033
     30 H4           2.1580     0.6320    -2.0220 h1         1 G9J       0.088700
     31 H5           2.5590    -3.4460     2.1790 ha         1 G9J       0.114000
     32 H6           1.0660    -5.8060    -1.1020 ha         1 G9J       0.133000
     33 H7           1.0630    -3.7850    -2.5650 ha         1 G9J       0.132000
     34 H8           2.1230    -5.5970     2.3160 ho         1 G9J       0.463000
     35 H9           0.2450     1.6540    -2.8660 ha         1 G9J       0.120000
     36 H10         -2.1470     2.2890    -2.6420 ha         1 G9J       0.127500
     37 H11         -2.5140    -0.2370     0.8300 ha         1 G9J       0.127500
     38 H12         -0.1260    -0.8850     0.6260 ha         1 G9J       0.120000
     39 H13          1.8230     1.4800     2.2570 ha         1 G9J       0.117000
     40 H14          2.3980     3.8320     2.8200 ha         1 G9J       0.117000
     41 H15          3.7660     5.1920     1.2390 ha         1 G9J       0.130000
     42 H16          4.0010     1.8320    -1.4560 ha         1 G9J       0.115000
     43 H17          4.9380     3.7910    -1.8440 ho         1 G9J       0.466000
@<TRIPOS>BOND
     1     1     2 1   
     2     1    27 1   
     3     1    28 1   
     4     1    29 1   
     5     2     3 2   
     6     2     7 1   
     7     3     4 1   
     8     3    20 1   
     9     4     5 1   
    10     4    13 1   
    11     4    30 1   
    12     5     6 1   
    13     6     7 ar  
    14     6    11 ar  
    15     7     8 ar  
    16     8     9 ar  
    17     8    31 1   
    18     9    10 ar  
    19     9    12 1   
    20    10    11 ar  
    21    10    32 1   
    22    11    33 1   
    23    12    34 1   
    24    13    14 ar  
    25    13    18 ar  
    26    14    15 ar  
    27    14    35 1   
    28    15    16 ar  
    29    15    36 1   
    30    16    17 ar  
    31    16    19 1   
    32    17    18 ar  
    33    17    37 1   
    34    18    38 1   
    35    20    21 ar  
    36    20    25 ar  
    37    21    22 ar  
    38    21    39 1   
    39    22    23 ar  
    40    22    40 1   
    41    23    24 ar  
    42    23    41 1   
    43    24    25 ar  
    44    24    26 1   
    45    25    42 1   
    46    26    43 1   
@<TRIPOS>SUBSTRUCTURE
     1 G9J         1 TEMP              0 ****  ****    0 ROOT
