@<TRIPOS>MOLECULE
G9J
   43    46     1     0     0
SMALL
bcc


@<TRIPOS>ATOM
      1 C1           3.5640    -0.9880     2.0230 c3         1 G9J      -0.055900
      2 C2           2.7810    -0.9730     0.7460 ce         1 G9J      -0.013400
      3 C3           2.5490     0.1300     0.0140 cf         1 G9J      -0.107400
      4 C4           1.7700     0.0160    -1.2710 c6         1 G9J       0.241600
      5 O5           1.9490    -1.2490    -1.8930 os         1 G9J      -0.307900
      6 C6           1.8170    -2.3220    -1.0730 ca         1 G9J       0.102100
      7 C7           2.2350    -2.2440     0.2560 ca         1 G9J      -0.085800
      8 C8           2.1310    -3.3790     1.0590 ca         1 G9J      -0.182000
      9 C9           1.6250    -4.5690     0.5500 ca         1 G9J       0.112100
     10 C10          1.2310    -4.6330    -0.7840 ca         1 G9J      -0.128000
     11 C11          1.3240    -3.5090    -1.5890 ca         1 G9J      -0.114000
     12 O12          1.4970    -5.6860     1.3000 oh         1 G9J      -0.494100
     13 C13          0.2910     0.3120    -1.1010 ca         1 G9J      -0.101300
     14 C14         -0.4390     0.7160    -2.2160 ca         1 G9J      -0.105000
     15 C15         -1.8020     0.9540    -2.1350 ca         1 G9J      -0.103500
     16 C16         -2.4430     0.7830    -0.9150 ca         1 G9J       0.067900
     17 C17         -1.7390     0.3830     0.2100 ca         1 G9J      -0.103500
     18 C18         -0.3730     0.1520     0.1080 ca         1 G9J      -0.105000
     19 I19         -4.5100     1.1430    -0.7720 i          1 G9J      -0.177900
     20 C20          2.9250     1.5000     0.4140 ca         1 G9J      -0.002800
     21 C21          2.5130     2.0180     1.6410 ca         1 G9J      -0.154000
     22 C22          2.8460     3.3190     1.9890 ca         1 G9J      -0.092000
     23 C23          3.5830     4.1200     1.1320 ca         1 G9J      -0.158000
     24 C24          3.9930     3.6100    -0.0990 ca         1 G9J       0.141100
     25 C25          3.6580     2.3080    -0.4560 ca         1 G9J      -0.216000
     26 O26          4.7140     4.4160    -0.9020 oh         1 G9J      -0.494100
     27 H1           4.2890    -1.8040     2.0200 hc         1 G9J       0.049033
     28 H2           4.1040    -0.0570     2.1800 hc         1 G9J       0.049033
     29 H3           2.9140    -1.1420     2.8880 hc         1 G9J       0.049033
     30 H4           2.1720     0.7270    -1.9970 h1         1 G9J       0.088700
     31 H5           2.4420    -3.3330     2.0970 ha         1 G9J       0.132000
     32 H6           0.8430    -5.5590    -1.1890 ha         1 G9J       0.151000
     33 H7           1.0170    -3.5580    -2.6260 ha         1 G9J       0.150000
     34 H8           1.7860    -5.5170     2.2040 ho         1 G9J       0.424000
     35 H9           0.0610     0.8540    -3.1670 ha         1 G9J       0.138000
     36 H10         -2.3440     1.2730    -3.0150 ha         1 G9J       0.145500
     37 H11         -2.2320     0.2510     1.1630 ha         1 G9J       0.145500
     38 H12          0.1660    -0.1510     0.9960 ha         1 G9J       0.138000
     39 H13          1.9210     1.4110     2.3130 ha         1 G9J       0.135000
     40 H14          2.5210     3.7190     2.9400 ha         1 G9J       0.135000
     41 H15          3.8400     5.1350     1.4060 ha         1 G9J       0.148000
     42 H16          3.9860     1.9120    -1.4110 ha         1 G9J       0.133000
     43 H17          4.9380     3.9630    -1.7230 ho         1 G9J       0.427000
@<TRIPOS>BOND
     1     1     2 1   
     2     1    27 1   
     3     1    28 1   
     4     1    29 1   
     5     2     3 2   
     6     2     7 1   
     7     3     4 1   
     8     3    20 1   
     9     4     5 1   
    10     4    13 1   
    11     4    30 1   
    12     5     6 1   
    13     6     7 ar  
    14     6    11 ar  
    15     7     8 ar  
    16     8     9 ar  
    17     8    31 1   
    18     9    10 ar  
    19     9    12 1   
    20    10    11 ar  
    21    10    32 1   
    22    11    33 1   
    23    12    34 1   
    24    13    14 ar  
    25    13    18 ar  
    26    14    15 ar  
    27    14    35 1   
    28    15    16 ar  
    29    15    36 1   
    30    16    17 ar  
    31    16    19 1   
    32    17    18 ar  
    33    17    37 1   
    34    18    38 1   
    35    20    21 ar  
    36    20    25 ar  
    37    21    22 ar  
    38    21    39 1   
    39    22    23 ar  
    40    22    40 1   
    41    23    24 ar  
    42    23    41 1   
    43    24    25 ar  
    44    24    26 1   
    45    25    42 1   
    46    26    43 1   
@<TRIPOS>SUBSTRUCTURE
     1 G9J         1 TEMP              0 ****  ****    0 ROOT
