@<TRIPOS>MOLECULE
G9K
   43    47     1     0     0
SMALL
No Charge or Current Charge


@<TRIPOS>ATOM
      1 C1           5.9520     1.0670     1.4010 c3         1 G9K       0.145900
      2 C10         -0.3350     2.4280    -0.2400 cc         1 G9K       0.163500
      3 C11         -1.1100     3.4860    -0.6530 cd         1 G9K      -0.151000
      4 C12         -2.3690     1.7130    -0.1670 cd         1 G9K       0.511300
      5 C13         -3.5360     0.8800     0.0040 cd         1 G9K      -0.197000
      6 C14         -4.8120     1.3830    -0.2450 cc         1 G9K      -0.155100
      7 C15         -4.9430    -0.8110     0.4200 ca         1 G9K      -0.054200
      8 C16         -3.6100    -0.5030     0.4240 ca         1 G9K      -0.066800
      9 C17         -2.6310    -1.4430     0.7830 ca         1 G9K      -0.042000
     10 C18         -3.0670    -2.7360     1.1460 ca         1 G9K      -0.140000
     11 C19         -4.4470    -3.0560     1.1430 ca         1 G9K      -0.086000
     12 C2           4.0590     0.0140     0.2010 ca         1 G9K       0.129100
     13 C20         -5.4050    -2.0850     0.7760 ca         1 G9K      -0.133000
     14 C21          3.2770     1.1890     0.2600 ca         1 G9K      -0.148000
     15 C3           3.5310    -1.1330    -0.4280 ca         1 G9K       0.084000
     16 C4           2.2520    -1.1120    -1.0000 ca         1 G9K       0.108000
     17 C5           2.4690    -3.3680    -1.6580 cc         1 G9K       0.117900
     18 C6           3.7390    -3.3910    -1.0930 cd         1 G9K       0.118900
     19 C7           1.4840     0.0630    -0.9370 ca         1 G9K      -0.079000
     20 C8           1.9750     1.2240    -0.2930 ca         1 G9K      -0.120600
     21 C9           1.1710     2.5150    -0.2150 c          1 G9K       0.530200
     22 N1          -2.4170     3.0240    -0.5900 na         1 G9K      -0.299500
     23 N2          -5.6750     0.2980     0.0250 na         1 G9K      -0.210700
     24 N3          -1.1210     1.3320     0.0430 nc         1 G9K      -0.653000
     25 O1           5.3320    -0.0520     0.7420 os         1 G9K      -0.323100
     26 O2           1.6990    -2.2070    -1.6500 os         1 G9K      -0.303000
     27 O3           4.2630    -2.2810    -0.5020 os         1 G9K      -0.283000
     28 O4           1.7570     3.5960    -0.2340 o          1 G9K      -0.551100
     29 H1           6.0520     1.9170     0.7140 h1         1 G9K       0.043033
     30 H2           5.3630     1.3820     2.2720 h1         1 G9K       0.043033
     31 H3           6.9550     0.7930     1.7500 h1         1 G9K       0.043033
     32 H4          -0.8320     4.4850    -0.9730 h4         1 G9K       0.173000
     33 H5          -5.1680     2.3560    -0.5710 h4         1 G9K       0.205000
     34 H6          -1.5740    -1.1910     0.7820 ha         1 G9K       0.142000
     35 H7          -2.3380    -3.4910     1.4300 ha         1 G9K       0.115000
     36 H8          -4.7720    -4.0550     1.4250 ha         1 G9K       0.111000
     37 H9          -6.4660    -2.3210     0.7700 ha         1 G9K       0.113000
     38 H10          3.6620     2.0840     0.7410 ha         1 G9K       0.141000
     39 H11          1.9790    -4.2000    -2.1450 h4         1 G9K       0.044100
     40 H12          4.3990    -4.2480    -1.0680 h4         1 G9K       0.045100
     41 H13          0.5110     0.0600    -1.4200 ha         1 G9K       0.164000
     42 H14         -3.2590     3.5340    -0.8190 hn         1 G9K       0.352000
     43 H15         -6.6870     0.3210    -0.0570 hn         1 G9K       0.353000
@<TRIPOS>BOND
     1     1    25 1   
     2     1    29 1   
     3     1    30 1   
     4     1    31 1   
     5     2     3 2   
     6     2    21 1   
     7     2    24 1   
     8     3    22 1   
     9     3    32 1   
    10     4     5 1   
    11     4    22 1   
    12     4    24 2   
    13     5     6 2   
    14     5     8 1   
    15     6    23 1   
    16     6    33 1   
    17     7     8 ar  
    18     7    13 ar  
    19     7    23 1   
    20     8     9 ar  
    21     9    10 ar  
    22     9    34 1   
    23    10    11 ar  
    24    10    35 1   
    25    11    13 ar  
    26    11    36 1   
    27    12    14 ar  
    28    12    15 ar  
    29    12    25 1   
    30    13    37 1   
    31    14    20 ar  
    32    14    38 1   
    33    15    16 ar  
    34    15    27 1   
    35    16    19 ar  
    36    16    26 1   
    37    17    18 2   
    38    17    26 1   
    39    17    39 1   
    40    18    27 1   
    41    18    40 1   
    42    19    20 ar  
    43    19    41 1   
    44    20    21 1   
    45    21    28 2   
    46    22    42 1   
    47    23    43 1   
@<TRIPOS>SUBSTRUCTURE
     1 G9K         1 TEMP              0 ****  ****    0 ROOT
