@<TRIPOS>MOLECULE
G9K
   43    47     1     0     0
SMALL
bcc


@<TRIPOS>ATOM
      1 C1           6.0780     1.2900     0.6420 c3         1 G9K       0.122700
      2 C10         -0.3070     2.3830    -0.1130 cc         1 G9K       0.228800
      3 C11         -1.0610     3.5280    -0.2330 cd         1 G9K      -0.183600
      4 C12         -2.3600     1.7610    -0.0590 cd         1 G9K       0.511300
      5 C13         -3.5620     0.9680     0.0070 cd         1 G9K      -0.197000
      6 C14         -4.8570     1.4130    -0.1110 cc         1 G9K      -0.105100
      7 C15         -5.0080    -0.7890     0.1790 ca         1 G9K      -0.054200
      8 C16         -3.6380    -0.4540     0.1960 ca         1 G9K      -0.066800
      9 C17         -2.6940    -1.4710     0.3790 ca         1 G9K      -0.060000
     10 C18         -3.1370    -2.7700     0.5330 ca         1 G9K      -0.158000
     11 C19         -4.5060    -3.0820     0.5090 ca         1 G9K      -0.104000
     12 C2           4.1160     0.0770     0.1130 ca         1 G9K       0.063800
     13 C20         -5.4600    -2.0980     0.3330 ca         1 G9K      -0.151000
     14 C21          3.3070     1.2030     0.1460 ca         1 G9K      -0.166000
     15 C3           3.5510    -1.1620    -0.2060 ca         1 G9K       0.193700
     16 C4           2.1940    -1.2500    -0.4820 ca         1 G9K       0.217700
     17 C5           2.4630    -3.5200    -0.7990 cc         1 G9K       0.162300
     18 C6           3.7540    -3.4280    -0.5330 cd         1 G9K       0.163300
     19 C7           1.3860    -0.1300    -0.4440 ca         1 G9K      -0.162300
     20 C8           1.9400     1.1070    -0.1240 ca         1 G9K      -0.120600
     21 C9           1.1580     2.3750    -0.0970 c          1 G9K       0.530200
     22 N1          -2.3460     3.1180    -0.2000 na         1 G9K      -0.299900
     23 N2          -5.7120     0.3670    -0.0080 na         1 G9K      -0.160400
     24 N3          -1.1380     1.2990    -0.0030 nc         1 G9K      -0.653000
     25 O1           5.4340     0.0600     0.3610 os         1 G9K      -0.299900
     26 O2           1.6130    -2.4460    -0.8010 os         1 G9K      -0.391800
     27 O3           4.3770    -2.2410    -0.2320 os         1 G9K      -0.371800
     28 O4           1.7470     3.4450    -0.0590 o          1 G9K      -0.551100
     29 H1           5.9650     2.0030    -0.1770 h1         1 G9K       0.043033
     30 H2           5.7020     1.7450     1.5620 h1         1 G9K       0.043033
     31 H3           7.1320     1.0600     0.7690 h1         1 G9K       0.043033
     32 H4          -0.7920     4.5650    -0.3430 h4         1 G9K       0.191000
     33 H5          -5.2370     2.4110    -0.2670 h4         1 G9K       0.155000
     34 H6          -1.6380    -1.2420     0.4040 ha         1 G9K       0.160000
     35 H7          -2.4170    -3.5660     0.6750 ha         1 G9K       0.133000
     36 H8          -4.8190    -4.1100     0.6320 ha         1 G9K       0.129000
     37 H9          -6.5160    -2.3330     0.3170 ha         1 G9K       0.131000
     38 H10          3.7270     2.1690     0.3880 ha         1 G9K       0.159000
     39 H11          1.9790    -4.4550    -1.0370 h4         1 G9K       0.044100
     40 H12          4.4180    -4.2770    -0.5310 h4         1 G9K       0.045100
     41 H13          0.3330    -0.2320    -0.6590 ha         1 G9K       0.182000
     42 H14         -3.1460     3.7280    -0.2690 hn         1 G9K       0.301700
     43 H15         -6.7150     0.4420    -0.0620 hn         1 G9K       0.302700
@<TRIPOS>BOND
     1     1    25 1   
     2     1    29 1   
     3     1    30 1   
     4     1    31 1   
     5     2     3 2   
     6     2    21 1   
     7     2    24 1   
     8     3    22 1   
     9     3    32 1   
    10     4     5 1   
    11     4    22 1   
    12     4    24 2   
    13     5     6 2   
    14     5     8 1   
    15     6    23 1   
    16     6    33 1   
    17     7     8 ar  
    18     7    13 ar  
    19     7    23 1   
    20     8     9 ar  
    21     9    10 ar  
    22     9    34 1   
    23    10    11 ar  
    24    10    35 1   
    25    11    13 ar  
    26    11    36 1   
    27    12    14 ar  
    28    12    15 ar  
    29    12    25 1   
    30    13    37 1   
    31    14    20 ar  
    32    14    38 1   
    33    15    16 ar  
    34    15    27 1   
    35    16    19 ar  
    36    16    26 1   
    37    17    18 2   
    38    17    26 1   
    39    17    39 1   
    40    18    27 1   
    41    18    40 1   
    42    19    20 ar  
    43    19    41 1   
    44    20    21 1   
    45    21    28 2   
    46    22    42 1   
    47    23    43 1   
@<TRIPOS>SUBSTRUCTURE
     1 G9K         1 TEMP              0 ****  ****    0 ROOT
