@<TRIPOS>MOLECULE
G9L
   50    53     1     0     0
SMALL
No Charge or Current Charge


@<TRIPOS>ATOM
      1 N11         -5.3690     0.4140    -0.0600 n3         1 G9L      -0.731600
      2 N12         -0.3940     0.3210     0.9930 n          1 G9L      -0.416800
      3 N13          2.6900    -2.2890    -0.0810 ns         1 G9L      -0.381100
      4 OAA         -1.4340     2.1420     0.0670 o          1 G9L      -0.599100
      5 CAD          5.1180     2.1600    -0.0030 ca         1 G9L      -0.115000
      6 CAE          3.8090     1.7540     0.3080 ca         1 G9L      -0.100000
      7 CAF          5.6890    -0.1280    -0.5890 ca         1 G9L      -0.089000
      8 CAG         -7.9990    -0.6270    -0.9770 c6         1 G9L      -0.075400
      9 CAH         -7.8640     0.7180    -0.2280 c6         1 G9L      -0.075900
     10 CAI         -6.8360    -1.5660    -0.5890 c6         1 G9L      -0.075900
     11 CAJ         -2.8850     0.2690     0.4780 c3         1 G9L      -0.156400
     12 CAK          0.3890    -1.9870     0.6650 c6         1 G9L      -0.071200
     13 CAL         -6.4660     1.3420    -0.4590 c6         1 G9L       0.169300
     14 CAM         -5.4650    -0.8790    -0.8050 c6         1 G9L       0.169300
     15 CAN         -4.0380     1.0670    -0.1660 c3         1 G9L       0.179800
     16 CAO         -0.4100    -1.0410     1.5740 c6         1 G9L       0.108000
     17 CAP          0.9630     0.9310     0.9690 c6         1 G9L       0.150200
     18 CAR         -1.5320     0.9970     0.4900 c          1 G9L       0.610100
     19 CAS          6.0530     1.2190    -0.4520 ca         1 G9L       0.150000
     20 CAT          1.7400    -1.3870     0.3610 cc         1 G9L       0.063400
     21 CAU          2.0480    -0.0400     0.4950 cd         1 G9L      -0.164400
     22 CAV          3.9830    -1.9890    -0.4190 c          1 G9L       0.572600
     23 CAW          3.4230     0.4010     0.1720 ca         1 G9L       0.008200
     24 CAX          4.3750    -0.5450    -0.2770 ca         1 G9L      -0.143600
     25 HN13         2.4400    -3.2650    -0.1790 hn         1 G9L       0.326500
     26 HAD          5.4080     3.2030     0.1040 ha         1 G9L       0.135000
     27 HAE          3.1040     2.5030     0.6590 ha         1 G9L       0.124000
     28 HAF          6.4300    -0.8450    -0.9370 ha         1 G9L       0.155000
     29 HAG         -8.9630    -1.0980    -0.7400 hc         1 G9L       0.039700
     30 HAGA        -7.9890    -0.4500    -2.0620 hc         1 G9L       0.039700
     31 HAH         -8.6430     1.4150    -0.5630 hc         1 G9L       0.045450
     32 HAHA        -8.0220     0.5620     0.8480 hc         1 G9L       0.045450
     33 HAI         -6.9340    -1.8640     0.4640 hc         1 G9L       0.045450
     34 HAIA        -6.8860    -2.4900    -1.1820 hc         1 G9L       0.045450
     35 HAJ         -3.1270    -0.0140     1.5070 hc         1 G9L       0.064200
     36 HAJA        -2.7320    -0.7030    -0.0000 hc         1 G9L       0.064200
     37 HAK          0.4830    -2.9660     1.1550 hc         1 G9L       0.066200
     38 HAKA        -0.1700    -2.1540    -0.2660 hc         1 G9L       0.066200
     39 HAL         -6.4020     2.2760     0.1190 h1         1 G9L       0.029700
     40 HALA        -6.3660     1.6130    -1.5210 h1         1 G9L       0.029700
     41 HAM         -5.3140    -0.7080    -1.8810 h1         1 G9L       0.029700
     42 HAMA        -4.6850    -1.5800    -0.4770 h1         1 G9L       0.029700
     43 HAN         -3.7930     1.2570    -1.2210 h1         1 G9L       0.048700
     44 HANA        -4.0800     2.0450     0.3330 h1         1 G9L       0.048700
     45 HAO          0.0630    -1.0090     2.5670 h1         1 G9L       0.059700
     46 HAOA        -1.4250    -1.4310     1.7180 h1         1 G9L       0.059700
     47 HAP          0.9620     1.8090     0.3090 h1         1 G9L       0.069700
     48 HAPA         1.2050     1.2910     1.9790 h1         1 G9L       0.069700
     49 OAB          4.7510    -2.8580    -0.8050 o          1 G9L      -0.549000
     50 FAC          7.3110     1.6100    -0.7510 f          1 G9L      -0.174000
@<TRIPOS>BOND
     1     1    13 1   
     2     1    14 1   
     3     1    15 1   
     4     2    16 1   
     5     2    17 1   
     6     2    18 1   
     7     3    20 1   
     8     3    22 1   
     9     3    25 1   
    10     4    18 2   
    11     5     6 ar  
    12     5    19 ar  
    13     5    26 1   
    14     6    23 ar  
    15     6    27 1   
    16     7    19 ar  
    17     7    24 ar  
    18     7    28 1   
    19     8     9 1   
    20     8    10 1   
    21     8    29 1   
    22     8    30 1   
    23     9    13 1   
    24     9    31 1   
    25     9    32 1   
    26    10    14 1   
    27    10    33 1   
    28    10    34 1   
    29    11    15 1   
    30    11    18 1   
    31    11    35 1   
    32    11    36 1   
    33    12    16 1   
    34    12    20 1   
    35    12    37 1   
    36    12    38 1   
    37    13    39 1   
    38    13    40 1   
    39    14    41 1   
    40    14    42 1   
    41    15    43 1   
    42    15    44 1   
    43    16    45 1   
    44    16    46 1   
    45    17    21 1   
    46    17    47 1   
    47    17    48 1   
    48    19    50 1   
    49    20    21 2   
    50    21    23 1   
    51    22    24 1   
    52    22    49 2   
    53    23    24 ar  
@<TRIPOS>SUBSTRUCTURE
     1 G9L         1 TEMP              0 ****  ****    0 ROOT
