@<TRIPOS>MOLECULE
G9L
   50    53     1     0     0
SMALL
bcc


@<TRIPOS>ATOM
      1 N11         -5.2200     0.3490    -0.1310 n3         1 G9L      -0.731600
      2 N12         -0.4370     0.3410     0.9470 n          1 G9L      -0.483800
      3 N13          2.6160    -2.2790     0.0260 ns         1 G9L      -0.448100
      4 OAA         -1.3740     2.0260    -0.2180 o          1 G9L      -0.599100
      5 CAD          4.9290     2.1270    -0.0500 ca         1 G9L      -0.133000
      6 CAE          3.6470     1.7310     0.2550 ca         1 G9L      -0.118000
      7 CAF          5.5380    -0.1580    -0.5310 ca         1 G9L      -0.107000
      8 CAG         -7.8670    -0.5900    -0.8810 c6         1 G9L      -0.075400
      9 CAH         -7.6550     0.6110     0.0320 c6         1 G9L      -0.075900
     10 CAI         -6.6690    -1.5260    -0.7930 c6         1 G9L      -0.075900
     11 CAJ         -2.8200     0.2240     0.3930 c3         1 G9L      -0.156400
     12 CAK          0.3210    -1.9580     0.7800 c6         1 G9L      -0.071200
     13 CAL         -6.3240     1.2860    -0.2610 c6         1 G9L       0.169300
     14 CAM         -5.3740    -0.7680    -1.0490 c6         1 G9L       0.169300
     15 CAN         -3.9360     1.0110    -0.2810 c3         1 G9L       0.179800
     16 CAO         -0.4710    -0.9520     1.5960 c6         1 G9L       0.108000
     17 CAP          0.8800     0.9360     0.8990 c6         1 G9L       0.150200
     18 CAR         -1.4880     0.9440     0.3410 c          1 G9L       0.677100
     19 CAS          5.8590     1.1700    -0.4410 ca         1 G9L       0.114900
     20 CAT          1.6550    -1.3840     0.4250 cc         1 G9L       0.063400
     21 CAU          1.9310    -0.0640     0.4930 cd         1 G9L      -0.164400
     22 CAV          3.9020    -1.9800    -0.3150 c          1 G9L       0.715100
     23 CAW          3.2650     0.3800     0.1790 ca         1 G9L       0.008200
     24 CAX          4.2350    -0.5570    -0.2190 ca         1 G9L      -0.143600
     25 HN13         2.3630    -3.2580    -0.0100 hn         1 G9L       0.326500
     26 HAD          5.2130     3.1700     0.0110 ha         1 G9L       0.153000
     27 HAE          2.9340     2.4850     0.5580 ha         1 G9L       0.142000
     28 HAF          6.2770    -0.8870    -0.8370 ha         1 G9L       0.173000
     29 HAG         -8.7900    -1.1140    -0.6220 hc         1 G9L       0.039700
     30 HAGA        -7.9820    -0.2430    -1.9130 hc         1 G9L       0.039700
     31 HAH         -8.4620     1.3380    -0.0870 hc         1 G9L       0.045450
     32 HAHA        -7.6680     0.2870     1.0770 hc         1 G9L       0.045450
     33 HAI         -6.6270    -1.9830     0.2000 hc         1 G9L       0.045450
     34 HAIA        -6.7570    -2.3390    -1.5160 hc         1 G9L       0.045450
     35 HAJ         -3.1040     0.0450     1.4340 hc         1 G9L       0.064200
     36 HAJA        -2.7060    -0.7640    -0.0610 hc         1 G9L       0.064200
     37 HAK          0.4520    -2.8780     1.3560 hc         1 G9L       0.066200
     38 HAKA        -0.2240    -2.2300    -0.1300 hc         1 G9L       0.066200
     39 HAL         -6.1670     2.1070     0.4420 h1         1 G9L       0.029700
     40 HALA        -6.3590     1.7340    -1.2710 h1         1 G9L       0.029700
     41 HAM         -5.3580    -0.4190    -2.0980 h1         1 G9L       0.029700
     42 HAMA        -4.5280    -1.4490    -0.9370 h1         1 G9L       0.029700
     43 HAN         -3.6940     1.1960    -1.3390 h1         1 G9L       0.048700
     44 HANA        -4.0060     1.9910     0.1940 h1         1 G9L       0.048700
     45 HAO         -0.0300    -0.8530     2.5920 h1         1 G9L       0.059700
     46 HAOA        -1.4900    -1.2960     1.7380 h1         1 G9L       0.059700
     47 HAP          0.8590     1.7640     0.1920 h1         1 G9L       0.069700
     48 HAPA         1.1290     1.3650     1.8780 h1         1 G9L       0.069700
     49 OAB          4.6910    -2.8500    -0.6610 o          1 G9L      -0.624500
     50 FAC          7.1040     1.5690    -0.7400 f          1 G9L      -0.138900
@<TRIPOS>BOND
     1     1    13 1   
     2     1    14 1   
     3     1    15 1   
     4     2    16 1   
     5     2    17 1   
     6     2    18 1   
     7     3    20 1   
     8     3    22 1   
     9     3    25 1   
    10     4    18 2   
    11     5     6 ar  
    12     5    19 ar  
    13     5    26 1   
    14     6    23 ar  
    15     6    27 1   
    16     7    19 ar  
    17     7    24 ar  
    18     7    28 1   
    19     8     9 1   
    20     8    10 1   
    21     8    29 1   
    22     8    30 1   
    23     9    13 1   
    24     9    31 1   
    25     9    32 1   
    26    10    14 1   
    27    10    33 1   
    28    10    34 1   
    29    11    15 1   
    30    11    18 1   
    31    11    35 1   
    32    11    36 1   
    33    12    16 1   
    34    12    20 1   
    35    12    37 1   
    36    12    38 1   
    37    13    39 1   
    38    13    40 1   
    39    14    41 1   
    40    14    42 1   
    41    15    43 1   
    42    15    44 1   
    43    16    45 1   
    44    16    46 1   
    45    17    21 1   
    46    17    47 1   
    47    17    48 1   
    48    19    50 1   
    49    20    21 2   
    50    21    23 1   
    51    22    24 1   
    52    22    49 2   
    53    23    24 ar  
@<TRIPOS>SUBSTRUCTURE
     1 G9L         1 TEMP              0 ****  ****    0 ROOT
