@<TRIPOS>MOLECULE
G9M
   57    61     1     0     0
SMALL
No Charge or Current Charge


@<TRIPOS>ATOM
      1 C            0.2150    -0.2280    -1.3450 c          1 G9M       0.603100
      2 O           -0.1970     0.8130    -1.8450 o          1 G9M      -0.504100
      3 CA           1.5370    -0.9030    -1.8090 c3         1 G9M       0.089800
      4 N11          6.7060     0.1870     0.6560 n3         1 G9M      -0.711600
      5 N12          2.8230    -0.3870    -1.2360 n3         1 G9M      -0.699600
      6 N13         -0.4250    -0.8940    -0.3150 ns         1 G9M      -0.337900
      7 N14         -5.3540     0.0830     2.0390 ns         1 G9M      -0.377100
      8 N15         -2.5990    -0.0640    -0.4260 nb         1 G9M      -0.658000
      9 OAB         -7.4830     0.8410     1.9560 o          1 G9M      -0.549000
     10 CAC         -6.9310     1.9890    -2.1500 ca         1 G9M      -0.116000
     11 CAD         -5.6790     1.7510    -2.7340 ca         1 G9M      -0.091000
     12 CAE         -1.8380    -1.0130     1.6640 ca         1 G9M      -0.177000
     13 CAF         -7.1600     1.6320    -0.8130 ca         1 G9M      -0.061000
     14 CAG         -4.6530     1.1540    -1.9840 ca         1 G9M      -0.079000
     15 CAH         -3.0860    -0.7780     2.2600 ca         1 G9M      -0.094000
     16 CAI          9.0330     0.4950     0.9020 c5         1 G9M      -0.079900
     17 CAJ          8.3270     0.7990     2.2590 c5         1 G9M      -0.079900
     18 CAK          5.3280    -0.3620    -1.3870 c6         1 G9M      -0.074900
     19 CAL          4.1860     0.1280     0.8080 c6         1 G9M      -0.074900
     20 CAM          7.9840    -0.3320     0.1140 c5         1 G9M       0.157800
     21 CAN          6.9420     0.1150     2.1180 c5         1 G9M       0.157800
     22 CAO          4.0110    -0.9960    -1.8880 c6         1 G9M       0.170800
     23 CAP          2.9010    -0.5170     0.2450 c6         1 G9M       0.170800
     24 CAV         -1.6360    -0.6200     0.3340 ca         1 G9M       0.471900
     25 CAW         -6.4130     0.6570     1.3940 c          1 G9M       0.579600
     26 CAX         -4.0850    -0.1710     1.4810 ca         1 G9M       0.010600
     27 CAY         -6.1390     1.0310    -0.0440 ca         1 G9M      -0.148600
     28 CAZ         -4.8630     0.7840    -0.6310 ca         1 G9M      -0.105500
     29 CBA         -3.8160     0.1780     0.1270 ca         1 G9M       0.390500
     30 CBB          5.4610    -0.4750     0.1570 c6         1 G9M       0.186500
     31 HA           1.4460    -1.9780    -1.6020 h1         1 G9M       0.044200
     32 HAA          1.5590    -0.8010    -2.9020 h1         1 G9M       0.044200
     33 HN13         0.0610    -1.7050     0.0410 hn         1 G9M       0.150000
     34 HN14        -5.5090    -0.1790     3.0050 hn         1 G9M       0.326500
     35 HAC         -7.7240     2.4510    -2.7330 ha         1 G9M       0.118000
     36 HAD         -5.5020     2.0280    -3.7710 ha         1 G9M       0.119000
     37 HAE         -1.0370    -1.4880     2.2240 ha         1 G9M       0.123000
     38 HAF         -8.1380     1.8240    -0.3740 ha         1 G9M       0.137000
     39 HAG         -3.6930     0.9830    -2.4660 ha         1 G9M       0.156000
     40 HAH         -3.2710    -1.0620     3.2930 ha         1 G9M       0.125000
     41 HAI          9.2760     1.4240     0.3740 hc         1 G9M       0.046450
     42 HAIA         9.9700    -0.0590     1.0310 hc         1 G9M       0.046450
     43 HAJ          8.8840     0.4110     3.1190 hc         1 G9M       0.046450
     44 HAJA         8.2160     1.8790     2.4050 hc         1 G9M       0.046450
     45 HAK          6.1640    -0.8660    -1.8860 hc         1 G9M       0.058200
     46 HAKA         5.3660     0.6930    -1.6890 hc         1 G9M       0.058200
     47 HAL          4.1570     1.2130     0.6380 hc         1 G9M       0.058200
     48 HALA         4.1980    -0.0220     1.8950 hc         1 G9M       0.058200
     49 HAM          8.0940    -1.4070     0.3160 h1         1 G9M       0.034200
     50 HAMA         8.0890    -0.1750    -0.9680 h1         1 G9M       0.034200
     51 HAN          6.1780     0.6430     2.7050 h1         1 G9M       0.034200
     52 HANA         6.9780    -0.9280     2.4640 h1         1 G9M       0.034200
     53 HAO          4.0380    -2.0780    -1.6940 h1         1 G9M       0.030200
     54 HAOA         3.9530    -0.8640    -2.9790 h1         1 G9M       0.030200
     55 HAP          2.0370    -0.0300     0.7190 h1         1 G9M       0.030200
     56 HAPA         2.8740    -1.5780     0.5340 h1         1 G9M       0.030200
     57 HBB          5.4980    -1.5440     0.4150 h1         1 G9M       0.010700
@<TRIPOS>BOND
     1     1     2 2   
     2     1     3 1   
     3     1     6 1   
     4     3     5 1   
     5     3    31 1   
     6     3    32 1   
     7     4    20 1   
     8     4    21 1   
     9     4    30 1   
    10     5    22 1   
    11     5    23 1   
    12     6    24 1   
    13     6    33 1   
    14     7    25 1   
    15     7    26 1   
    16     7    34 1   
    17     8    24 ar  
    18     8    29 ar  
    19     9    25 2   
    20    10    11 ar  
    21    10    13 ar  
    22    10    35 1   
    23    11    14 ar  
    24    11    36 1   
    25    12    15 ar  
    26    12    24 ar  
    27    12    37 1   
    28    13    27 ar  
    29    13    38 1   
    30    14    28 ar  
    31    14    39 1   
    32    15    26 ar  
    33    15    40 1   
    34    16    17 1   
    35    16    20 1   
    36    16    41 1   
    37    16    42 1   
    38    17    21 1   
    39    17    43 1   
    40    17    44 1   
    41    18    22 1   
    42    18    30 1   
    43    18    45 1   
    44    18    46 1   
    45    19    23 1   
    46    19    30 1   
    47    19    47 1   
    48    19    48 1   
    49    20    49 1   
    50    20    50 1   
    51    21    51 1   
    52    21    52 1   
    53    22    53 1   
    54    22    54 1   
    55    23    55 1   
    56    23    56 1   
    57    25    27 1   
    58    26    29 ar  
    59    27    28 ar  
    60    28    29 1   
    61    30    57 1   
@<TRIPOS>SUBSTRUCTURE
     1 G9M         1 TEMP              0 ****  ****    0 ROOT
