@<TRIPOS>MOLECULE
G9M
   57    61     1     0     0
SMALL
abcg2


@<TRIPOS>ATOM
      1 C            0.2570    -1.2570    -0.5090 c          1 G9M       0.603100
      2 O            0.1330    -0.1350    -0.9430 o          1 G9M      -0.504100
      3 CA           1.5620    -2.0390    -0.6110 c3         1 G9M       0.089800
      4 N11          6.4360     0.7270     0.1660 n3         1 G9M      -0.711600
      5 N12          2.7060    -1.1740    -0.5620 n3         1 G9M      -0.699600
      6 N13         -0.7410    -1.9840     0.0790 ns         1 G9M      -0.337900
      7 N14         -6.0190    -0.6770     0.8450 ns         1 G9M      -0.377100
      8 N15         -2.5260    -0.4900    -0.1380 nb         1 G9M      -0.658000
      9 OAB         -7.7490     0.7530     0.6520 o          1 G9M      -0.549000
     10 CAC         -5.2700     3.5870    -1.2310 ca         1 G9M      -0.116000
     11 CAD         -3.9280     3.2570    -1.4280 ca         1 G9M      -0.091000
     12 CAE         -2.9050    -2.5970     0.9020 ca         1 G9M      -0.177000
     13 CAF         -6.1180     2.6880    -0.6170 ca         1 G9M      -0.061000
     14 CAG         -3.4410     2.0340    -1.0150 ca         1 G9M      -0.079000
     15 CAH         -4.2260    -2.2870     1.1020 ca         1 G9M      -0.094000
     16 CAI          8.7170     1.2930    -0.0120 c5         1 G9M      -0.079900
     17 CAJ          8.1100     2.0150     1.2070 c5         1 G9M      -0.079900
     18 CAK          5.0530    -0.8180    -1.1670 c6         1 G9M      -0.074900
     19 CAL          4.0910     0.3260     0.8040 c6         1 G9M      -0.074900
     20 CAM          7.6920     0.2140    -0.3630 c5         1 G9M       0.157800
     21 CAN          6.7960     1.2780     1.4640 c5         1 G9M       0.157800
     22 CAO          3.8920    -1.7980    -1.1170 c6         1 G9M       0.170800
     23 CAP          2.9560    -0.6840     0.7800 c6         1 G9M       0.170800
     24 CAV         -2.0780    -1.6520     0.2670 ca         1 G9M       0.471900
     25 CAW         -6.5680     0.5080     0.4590 c          1 G9M       0.579600
     26 CAX         -4.7040    -1.0470     0.6710 ca         1 G9M       0.010600
     27 CAY         -5.6380     1.4470    -0.1930 ca         1 G9M      -0.148600
     28 CAZ         -4.2910     1.1150    -0.3930 ca         1 G9M      -0.105500
     29 CBA         -3.8080    -0.1790     0.0540 ca         1 G9M       0.390500
     30 CBB          5.3720    -0.2600     0.2180 c6         1 G9M       0.186500
     31 HA           1.5960    -2.8390     0.1490 h1         1 G9M       0.044200
     32 HAA          1.5380    -2.5490    -1.5800 h1         1 G9M       0.044200
     33 HN13        -0.4760    -2.8910     0.4330 hn         1 G9M       0.150000
     34 HN14        -6.6410    -1.3350     1.2960 hn         1 G9M       0.326500
     35 HAC         -5.6450     4.5470    -1.5600 ha         1 G9M       0.118000
     36 HAD         -3.2650     3.9650    -1.9080 ha         1 G9M       0.119000
     37 HAE         -2.5120    -3.5500     1.2300 ha         1 G9M       0.123000
     38 HAF         -7.1590     2.9390    -0.4630 ha         1 G9M       0.137000
     39 HAG         -2.4020     1.7700    -1.1630 ha         1 G9M       0.156000
     40 HAH         -4.8860    -2.9940     1.5890 ha         1 G9M       0.125000
     41 HAI          8.8510     1.9840    -0.8450 hc         1 G9M       0.046450
     42 HAIA         9.6920     0.8560     0.2030 hc         1 G9M       0.046450
     43 HAJ          8.7600     1.9840     2.0810 hc         1 G9M       0.046450
     44 HAJA         7.9240     3.0650     0.9810 hc         1 G9M       0.046450
     45 HAK          5.9150    -1.3350    -1.5920 hc         1 G9M       0.058200
     46 HAKA         4.8070     0.0100    -1.8400 hc         1 G9M       0.058200
     47 HAL          3.8050     1.2130     0.2300 hc         1 G9M       0.058200
     48 HALA         4.2390     0.6440     1.8380 hc         1 G9M       0.058200
     49 HAM          7.9650    -0.7420     0.1150 h1         1 G9M       0.034200
     50 HAMA         7.6340     0.0330    -1.4370 h1         1 G9M       0.034200
     51 HAN          6.0200     1.9370     1.8530 h1         1 G9M       0.034200
     52 HANA         6.9470     0.4780     2.2110 h1         1 G9M       0.034200
     53 HAO          4.1940    -2.6890    -0.5380 h1         1 G9M       0.030200
     54 HAOA         3.6660    -2.1440    -2.1280 h1         1 G9M       0.030200
     55 HAP          2.0520    -0.2100     1.1670 h1         1 G9M       0.030200
     56 HAPA         3.1920    -1.5160     1.4690 h1         1 G9M       0.030200
     57 HBB          5.6820    -1.1100     0.8610 h1         1 G9M       0.010700
@<TRIPOS>BOND
     1     1     2 2   
     2     1     3 1   
     3     1     6 1   
     4     3     5 1   
     5     3    31 1   
     6     3    32 1   
     7     4    20 1   
     8     4    21 1   
     9     4    30 1   
    10     5    22 1   
    11     5    23 1   
    12     6    24 1   
    13     6    33 1   
    14     7    25 1   
    15     7    26 1   
    16     7    34 1   
    17     8    24 ar  
    18     8    29 ar  
    19     9    25 2   
    20    10    11 ar  
    21    10    13 ar  
    22    10    35 1   
    23    11    14 ar  
    24    11    36 1   
    25    12    15 ar  
    26    12    24 ar  
    27    12    37 1   
    28    13    27 ar  
    29    13    38 1   
    30    14    28 ar  
    31    14    39 1   
    32    15    26 ar  
    33    15    40 1   
    34    16    17 1   
    35    16    20 1   
    36    16    41 1   
    37    16    42 1   
    38    17    21 1   
    39    17    43 1   
    40    17    44 1   
    41    18    22 1   
    42    18    30 1   
    43    18    45 1   
    44    18    46 1   
    45    19    23 1   
    46    19    30 1   
    47    19    47 1   
    48    19    48 1   
    49    20    49 1   
    50    20    50 1   
    51    21    51 1   
    52    21    52 1   
    53    22    53 1   
    54    22    54 1   
    55    23    55 1   
    56    23    56 1   
    57    25    27 1   
    58    26    29 ar  
    59    27    28 ar  
    60    28    29 1   
    61    30    57 1   
@<TRIPOS>SUBSTRUCTURE
     1 G9M         1 TEMP              0 ****  ****    0 ROOT
