@<TRIPOS>MOLECULE
G9N
   53    55     1     0     0
SMALL
abcg2


@<TRIPOS>ATOM
      1 C4          -5.6330     0.2680     1.3540 ca         1 G9N      -0.105000
      2 C5          -6.9730     0.2890     1.7160 ca         1 G9N      -0.109000
      3 C6          -7.9340    -0.2430     0.8660 ca         1 G9N      -0.108000
      4 C8          -3.1690    -1.6990     0.1270 c3         1 G9N       0.101000
      5 C10         -0.7740    -1.4070     0.5460 c          1 G9N       0.570100
      6 C17          1.2830    -0.6320    -3.6840 cc         1 G9N      -0.140000
      7 C20          1.7090    -3.1950     1.9570 c3         1 G9N       0.024600
      8 C24          3.1080     0.6750    -0.1220 ca         1 G9N      -0.050000
      9 C26          2.7600     3.0120     0.3610 ca         1 G9N       0.155100
     10 C28          1.3400     1.3200     1.3620 ca         1 G9N      -0.052000
     11 C31          4.0840     4.7300    -0.5850 c3         1 G9N       0.146900
     12 O30          3.0220     4.3180     0.2580 os         1 G9N      -0.322100
     13 C27          1.6970     2.6420     1.1930 ca         1 G9N       0.077000
     14 CL           0.8180     3.8800     2.0200 cl         1 G9N      -0.181000
     15 C25          3.4640     2.0030    -0.2920 ca         1 G9N      -0.197000
     16 C23          2.0460     0.3280     0.6940 ca         1 G9N      -0.090000
     17 N13          1.6590    -1.0370     0.8080 n          1 G9N      -0.228400
     18 C19          2.1510    -1.7420     1.8630 c          1 G9N       0.614100
     19 O22          2.9230    -1.2540     2.6590 o          1 G9N      -0.536100
     20 C11          0.6280    -1.5440    -0.0890 c3         1 G9N       0.117000
     21 C14          0.7120    -0.9360    -1.4550 cd         1 G9N      -0.264300
     22 C18          1.3390    -1.4720    -2.5410 cc         1 G9N      -0.108000
     23 C16          0.6090     0.5260    -3.4420 cd         1 G9N      -0.238000
     24 S15          0.0450     0.6090    -1.8310 ss         1 G9N       0.263000
     25 O12         -0.9140    -1.0270     1.6960 o          1 G9N      -0.583100
     26 N9          -1.7760    -1.7950    -0.2470 ns         1 G9N      -0.497900
     27 C3          -5.2300    -0.2810     0.1390 ca         1 G9N      -0.084300
     28 C2          -6.2030    -0.8130    -0.7060 ca         1 G9N      -0.105000
     29 C1          -7.5440    -0.7950    -0.3480 ca         1 G9N      -0.109000
     30 H1          -4.8910     0.6890     2.0230 ha         1 G9N       0.112500
     31 H2          -7.2690     0.7250     2.6620 ha         1 G9N       0.113500
     32 H3          -8.9790    -0.2230     1.1450 ha         1 G9N       0.113000
     33 H4          -3.2220     0.4490     0.2740 hc         1 G9N       0.055200
     34 H5          -3.6570    -0.1740    -1.3100 hc         1 G9N       0.055200
     35 H6          -3.2640    -1.8790     1.1970 h1         1 G9N       0.062200
     36 H7          -3.7060    -2.4980    -0.3840 h1         1 G9N       0.062200
     37 H8           1.7180    -0.8810    -4.6410 ha         1 G9N       0.139000
     38 H9           0.6280    -3.2800     2.0480 h1         1 G9N       0.080200
     39 H10          2.0220    -3.7520     1.0730 h1         1 G9N       0.080200
     40 H12          3.6570    -0.0940    -0.6480 ha         1 G9N       0.123000
     41 H13          0.5060     1.0610     1.9990 ha         1 G9N       0.156000
     42 H14          5.0430     4.3210    -0.2610 h1         1 G9N       0.044033
     43 H15          3.9090     4.4460    -1.6250 h1         1 G9N       0.044033
     44 H16          4.1230     5.8140    -0.5180 h1         1 G9N       0.044033
     45 H17          4.2960     2.2390    -0.9400 ha         1 G9N       0.122000
     46 H18          0.7940    -2.6140    -0.2430 h1         1 G9N       0.074700
     47 H19          1.8240    -2.4380    -2.5230 ha         1 G9N       0.135000
     48 H20          0.4110     1.3350    -4.1280 h4         1 G9N       0.155000
     49 H21         -1.5680    -2.0590    -1.1980 hn         1 G9N       0.319500
     50 H22         -5.9070    -1.2410    -1.6570 ha         1 G9N       0.112500
     51 H23         -8.2860    -1.2070    -1.0200 ha         1 G9N       0.113500
     52 CL1          2.4290    -3.9850     3.3710 cl         1 G9N      -0.220000
     53 C7          -3.7770    -0.3410    -0.2370 c3         1 G9N      -0.056100
@<TRIPOS>BOND
     1     1     2 ar  
     2     1    27 ar  
     3     1    30 1   
     4     2     3 ar  
     5     2    31 1   
     6     3    29 ar  
     7     3    32 1   
     8     4    26 1   
     9     4    35 1   
    10     4    36 1   
    11     4    53 1   
    12     5    20 1   
    13     5    25 2   
    14     5    26 1   
    15     6    22 1   
    16     6    23 2   
    17     6    37 1   
    18     7    18 1   
    19     7    38 1   
    20     7    39 1   
    21     7    52 1   
    22     8    15 ar  
    23     8    16 ar  
    24     8    40 1   
    25     9    12 1   
    26     9    13 ar  
    27     9    15 ar  
    28    10    13 ar  
    29    10    16 ar  
    30    10    41 1   
    31    11    12 1   
    32    11    42 1   
    33    11    43 1   
    34    11    44 1   
    35    13    14 1   
    36    15    45 1   
    37    16    17 1   
    38    17    18 1   
    39    17    20 1   
    40    18    19 2   
    41    20    21 1   
    42    20    46 1   
    43    21    22 2   
    44    21    24 1   
    45    22    47 1   
    46    23    24 1   
    47    23    48 1   
    48    26    49 1   
    49    27    28 ar  
    50    27    53 1   
    51    28    29 ar  
    52    28    50 1   
    53    29    51 1   
    54    33    53 1   
    55    34    53 1   
@<TRIPOS>SUBSTRUCTURE
     1 G9N         1 TEMP              0 ****  ****    0 ROOT
