@<TRIPOS>MOLECULE
G9N
   53    55     1     0     0
SMALL
No Charge or Current Charge


@<TRIPOS>ATOM
      1 C4          -5.9050    -0.3250     1.4180 ca         1 G9N      -0.105000
      2 C5          -7.2810    -0.3610     1.7010 ca         1 G9N      -0.109000
      3 C6          -8.2040    -0.6330     0.6770 ca         1 G9N      -0.108000
      4 C8          -3.2770    -1.8850     0.0860 c3         1 G9N       0.101000
      5 C10         -0.8760    -1.2890     0.5740 c          1 G9N       0.570100
      6 C17          1.0360    -0.4770    -3.6940 cc         1 G9N      -0.140000
      7 C20          1.4540    -2.9600     2.2700 c3         1 G9N       0.024600
      8 C24          2.9950     0.7990    -0.3700 ca         1 G9N      -0.050000
      9 C26          3.3420     3.0940     0.3900 ca         1 G9N       0.155100
     10 C28          1.9160     1.5710     1.6590 ca         1 G9N      -0.052000
     11 C31          4.7680     4.6990    -0.8380 c3         1 G9N       0.146900
     12 O30          3.9080     4.3500     0.2620 os         1 G9N      -0.322100
     13 C27          2.5090     2.8340     1.4980 ca         1 G9N       0.077000
     14 Cl           2.2020     4.0810     2.7090 cl         1 G9N      -0.181000
     15 C25          3.5920     2.0600    -0.5390 ca         1 G9N      -0.197000
     16 C23          2.1020     0.5620     0.6940 ca         1 G9N      -0.090000
     17 N13          1.5870    -0.7660     0.9330 n          1 G9N      -0.228400
     18 C19          1.9860    -1.5190     2.0800 c          1 G9N       0.614100
     19 O22          2.7710    -1.0400     2.8940 o          1 G9N      -0.536100
     20 C11          0.5650    -1.3250    -0.0180 c3         1 G9N       0.117000
     21 C14          0.6080    -0.7350    -1.4170 cd         1 G9N      -0.264300
     22 C18          1.1870    -1.2760    -2.5360 cc         1 G9N      -0.108000
     23 C16          0.3360     0.6820    -3.4790 cd         1 G9N      -0.238000
     24 S15         -0.1770     0.8200    -1.7880 ss         1 G9N       0.263000
     25 O12         -1.1470    -0.7910     1.6590 o          1 G9N      -0.583100
     26 N9          -1.8450    -1.8640    -0.2230 ns         1 G9N      -0.497900
     27 C3          -5.4430    -0.5610     0.1080 ca         1 G9N      -0.084300
     28 C2          -6.3720    -0.8360    -0.9150 ca         1 G9N      -0.105000
     29 C1          -7.7480    -0.8710    -0.6310 ca         1 G9N      -0.109000
     30 H1          -5.1970    -0.1150     2.2170 ha         1 G9N       0.112500
     31 H2          -7.6330    -0.1770     2.7140 ha         1 G9N       0.113500
     32 H3          -9.2690    -0.6610     0.8960 ha         1 G9N       0.113000
     33 H4          -3.4650     0.2500     0.4060 hc         1 G9N       0.055200
     34 H5          -3.7830    -0.2560    -1.2440 hc         1 G9N       0.055200
     35 H6          -3.4140    -2.1540     1.1430 h1         1 G9N       0.062200
     36 H7          -3.7570    -2.6630    -0.5230 h1         1 G9N       0.062200
     37 H8           1.4450    -0.7700    -4.6580 ha         1 G9N       0.139000
     38 H9           0.3620    -2.9380     2.3350 h1         1 G9N       0.080200
     39 H10          1.7580    -3.5670     1.4100 h1         1 G9N       0.080200
     40 H12          3.2270     0.0030    -1.0750 ha         1 G9N       0.123000
     41 H13          1.2890     1.3830     2.5280 ha         1 G9N       0.156000
     42 H14          5.6610     4.0610    -0.8520 h1         1 G9N       0.044033
     43 H15          4.2410     4.5910    -1.7940 h1         1 G9N       0.044033
     44 H16          5.0970     5.7420    -0.7460 h1         1 G9N       0.044033
     45 H17          4.2530     2.2100    -1.3880 ha         1 G9N       0.122000
     46 H18          0.7860    -2.3890    -0.1590 h1         1 G9N       0.074700
     47 H19          1.7180    -2.2240    -2.5530 ha         1 G9N       0.135000
     48 H20          0.0850     1.4590    -4.1900 h4         1 G9N       0.155000
     49 H21         -1.5380    -2.2370    -1.1160 hn         1 G9N       0.319500
     50 H22         -6.0280    -1.0240    -1.9300 ha         1 G9N       0.112500
     51 H23         -8.4610    -1.0840    -1.4250 ha         1 G9N       0.113500
     52 Cl1          2.0660    -3.8080     3.7720 cl         1 G9N      -0.220000
     53 C7          -3.9520    -0.5280    -0.1950 c3         1 G9N      -0.056100
@<TRIPOS>BOND
     1     1     2 ar  
     2     1    27 ar  
     3     1    30 1   
     4     2     3 ar  
     5     2    31 1   
     6     3    29 ar  
     7     3    32 1   
     8     4    26 1   
     9     4    35 1   
    10     4    36 1   
    11     4    53 1   
    12     5    20 1   
    13     5    25 2   
    14     5    26 1   
    15     6    22 1   
    16     6    23 2   
    17     6    37 1   
    18     7    18 1   
    19     7    38 1   
    20     7    39 1   
    21     7    52 1   
    22     8    15 ar  
    23     8    16 ar  
    24     8    40 1   
    25     9    12 1   
    26     9    13 ar  
    27     9    15 ar  
    28    10    13 ar  
    29    10    16 ar  
    30    10    41 1   
    31    11    12 1   
    32    11    42 1   
    33    11    43 1   
    34    11    44 1   
    35    13    14 1   
    36    15    45 1   
    37    16    17 1   
    38    17    18 1   
    39    17    20 1   
    40    18    19 2   
    41    20    21 1   
    42    20    46 1   
    43    21    22 2   
    44    21    24 1   
    45    22    47 1   
    46    23    24 1   
    47    23    48 1   
    48    26    49 1   
    49    27    28 ar  
    50    27    53 1   
    51    28    29 ar  
    52    28    50 1   
    53    29    51 1   
    54    33    53 1   
    55    34    53 1   
@<TRIPOS>SUBSTRUCTURE
     1 G9N         1 TEMP              0 ****  ****    0 ROOT
