@<TRIPOS>MOLECULE
G9O
   46    45     1     0     0
SMALL
No Charge or Current Charge


@<TRIPOS>ATOM
      1 C1          27.6520    -3.2920     3.4560 c3         1 G9O      -0.088100
      2 C2          27.1970    -4.5210     4.2680 c3         1 G9O      -0.073400
      3 C3          25.7220    -4.9520     4.0650 c3         1 G9O      -0.071400
      4 C4          25.3420    -5.4270     2.6380 c3         1 G9O      -0.072400
      5 C5          24.8440    -4.3080     1.6910 c3         1 G9O      -0.077400
      6 C6          24.4640    -4.8330     0.2900 c3         1 G9O      -0.076400
      7 C7          23.9470    -3.7230    -0.6520 c3         1 G9O      -0.073400
      8 C8          23.7390    -4.1420    -2.1300 c3         1 G9O      -0.072400
      9 C9          22.6680    -5.2390    -2.3840 c3         1 G9O      -0.073400
     10 C10         23.1630    -6.7090    -2.3490 c3         1 G9O      -0.076400
     11 C11         24.0740    -7.1050    -3.5380 c3         1 G9O      -0.076400
     12 C12         24.5870    -8.5640    -3.4910 c3         1 G9O      -0.065400
     13 C13         23.4810    -9.6400    -3.6260 c3         1 G9O      -0.157400
     14 C14         24.0840   -11.0580    -3.6950 c          1 G9O       0.604100
     15 O15         24.5190   -11.6120    -2.6960 o          1 G9O      -0.587100
     16 N16         24.1190   -11.7190    -4.9190 ns         1 G9O      -0.383400
     17 O17         23.3870   -11.2500    -6.0780 oh         1 G9O      -0.436100
     18 H1          28.6390    -2.9580     3.7960 hc         1 G9O       0.031033
     19 H2          27.7330    -3.5350     2.3900 hc         1 G9O       0.031033
     20 H3          26.9480    -2.4600     3.5780 hc         1 G9O       0.031033
     21 H4          27.8570    -5.3660     4.0350 hc         1 G9O       0.034700
     22 H5          27.3430    -4.3000     5.3320 hc         1 G9O       0.034700
     23 H6          25.0530    -4.1390     4.3760 hc         1 G9O       0.037200
     24 H7          25.5270    -5.7810     4.7570 hc         1 G9O       0.037200
     25 H8          24.5420    -6.1720     2.7290 hc         1 G9O       0.037200
     26 H9          26.1960    -5.9460     2.1850 hc         1 G9O       0.037200
     27 H10         25.6100    -3.5340     1.5820 hc         1 G9O       0.036700
     28 H11         23.9680    -3.8230     2.1410 hc         1 G9O       0.036700
     29 H12         23.6870    -5.5970     0.4070 hc         1 G9O       0.038200
     30 H13         25.3380    -5.3180    -0.1630 hc         1 G9O       0.038200
     31 H14         24.6620    -2.8910    -0.6370 hc         1 G9O       0.035700
     32 H15         23.0040    -3.3270    -0.2550 hc         1 G9O       0.035700
     33 H16         24.7010    -4.4350    -2.5640 hc         1 G9O       0.037700
     34 H17         23.4290    -3.2430    -2.6790 hc         1 G9O       0.037700
     35 H18         22.2140    -5.0590    -3.3660 hc         1 G9O       0.038200
     36 H19         21.8560    -5.1180    -1.6550 hc         1 G9O       0.038200
     37 H20         22.2770    -7.3550    -2.3530 hc         1 G9O       0.041700
     38 H21         23.6880    -6.9150    -1.4110 hc         1 G9O       0.041700
     39 H22         24.9480    -6.4440    -3.5630 hc         1 G9O       0.040200
     40 H23         23.5350    -6.9420    -4.4800 hc         1 G9O       0.040200
     41 H24         25.1410    -8.7230    -2.5570 hc         1 G9O       0.043200
     42 H25         25.3080    -8.7000    -4.3070 hc         1 G9O       0.043200
     43 H26         22.8380    -9.5930    -2.7410 hc         1 G9O       0.072700
     44 H27         22.8890    -9.4110    -4.5170 hc         1 G9O       0.072700
     45 H28         24.3540   -12.7100    -4.9140 hn         1 G9O       0.332500
     46 H29         24.0440   -11.3200    -6.8120 ho         1 G9O       0.448000
@<TRIPOS>BOND
     1     1     2 1   
     2     1    18 1   
     3     1    19 1   
     4     1    20 1   
     5     2     3 1   
     6     2    21 1   
     7     2    22 1   
     8     3     4 1   
     9     3    23 1   
    10     3    24 1   
    11     4     5 1   
    12     4    25 1   
    13     4    26 1   
    14     5     6 1   
    15     5    27 1   
    16     5    28 1   
    17     6     7 1   
    18     6    29 1   
    19     6    30 1   
    20     7     8 1   
    21     7    31 1   
    22     7    32 1   
    23     8     9 1   
    24     8    33 1   
    25     8    34 1   
    26     9    10 1   
    27     9    35 1   
    28     9    36 1   
    29    10    11 1   
    30    10    37 1   
    31    10    38 1   
    32    11    12 1   
    33    11    39 1   
    34    11    40 1   
    35    12    13 1   
    36    12    41 1   
    37    12    42 1   
    38    13    14 1   
    39    13    43 1   
    40    13    44 1   
    41    14    15 2   
    42    14    16 1   
    43    16    17 1   
    44    16    45 1   
    45    17    46 1   
@<TRIPOS>SUBSTRUCTURE
     1 G9O         1 TEMP              0 ****  ****    0 ROOT
