@<TRIPOS>MOLECULE
G9O
   46    45     1     0     0
SMALL
abcg2


@<TRIPOS>ATOM
      1 C1          27.7720    -3.5590     3.2810 c3         1 G9O      -0.088100
      2 C2          27.1260    -4.5250     4.2640 c3         1 G9O      -0.073400
      3 C3          25.6300    -4.7560     4.0560 c3         1 G9O      -0.071400
      4 C4          25.2470    -5.3180     2.6800 c3         1 G9O      -0.072400
      5 C5          24.8250    -4.2640     1.6620 c3         1 G9O      -0.077400
      6 C6          24.4880    -4.8500     0.2960 c3         1 G9O      -0.076400
      7 C7          24.0230    -3.7910    -0.6960 c3         1 G9O      -0.073400
      8 C8          23.7640    -4.2920    -2.1150 c3         1 G9O      -0.072400
      9 C9          22.6750    -5.3700    -2.2220 c3         1 G9O      -0.073400
     10 C10         23.1870    -6.8100    -2.2690 c3         1 G9O      -0.076400
     11 C11         23.8810    -7.1550    -3.5840 c3         1 G9O      -0.076400
     12 C12         24.4460    -8.5700    -3.6450 c3         1 G9O      -0.065400
     13 C13         23.3610    -9.6520    -3.6100 c3         1 G9O      -0.157400
     14 C14         23.9600   -11.0340    -3.6520 c          1 G9O       0.604100
     15 O15         24.1620   -11.7020    -2.6490 o          1 G9O      -0.587100
     16 N16         24.3510   -11.5020    -4.8600 ns         1 G9O      -0.383400
     17 O17         23.9480   -10.9090    -6.0230 oh         1 G9O      -0.436100
     18 H1          28.8210    -3.3920     3.5300 hc         1 G9O       0.031033
     19 H2          27.7380    -3.9390     2.2590 hc         1 G9O       0.031033
     20 H3          27.2710    -2.5880     3.2880 hc         1 G9O       0.031033
     21 H4          27.6430    -5.4880     4.2100 hc         1 G9O       0.034700
     22 H5          27.2830    -4.1570     5.2820 hc         1 G9O       0.034700
     23 H6          25.0900    -3.8190     4.2320 hc         1 G9O       0.037200
     24 H7          25.2890    -5.4430     4.8350 hc         1 G9O       0.037200
     25 H8          24.4210    -6.0260     2.7950 hc         1 G9O       0.037200
     26 H9          26.0810    -5.9030     2.2780 hc         1 G9O       0.037200
     27 H10         25.6090    -3.5100     1.5440 hc         1 G9O       0.036700
     28 H11         23.9510    -3.7280     2.0490 hc         1 G9O       0.036700
     29 H12         23.7140    -5.6150     0.4190 hc         1 G9O       0.038200
     30 H13         25.3660    -5.3680    -0.1050 hc         1 G9O       0.038200
     31 H14         24.7740    -2.9950    -0.7410 hc         1 G9O       0.035700
     32 H15         23.1110    -3.3200    -0.3130 hc         1 G9O       0.035700
     33 H16         24.7020    -4.6590    -2.5430 hc         1 G9O       0.037700
     34 H17         23.4820    -3.4300    -2.7270 hc         1 G9O       0.037700
     35 H18         22.0740    -5.1970    -3.1200 hc         1 G9O       0.038200
     36 H19         21.9830    -5.2600    -1.3810 hc         1 G9O       0.038200
     37 H20         22.3420    -7.4850    -2.1140 hc         1 G9O       0.041700
     38 H21         23.8790    -6.9930    -1.4410 hc         1 G9O       0.041700
     39 H22         24.7000    -6.4520    -3.7560 hc         1 G9O       0.040200
     40 H23         23.1790    -7.0100    -4.4130 hc         1 G9O       0.040200
     41 H24         25.1390    -8.7240    -2.8120 hc         1 G9O       0.043200
     42 H25         25.0370    -8.6740    -4.5580 hc         1 G9O       0.043200
     43 H26         22.7940    -9.5860    -2.6810 hc         1 G9O       0.072700
     44 H27         22.6610    -9.4940    -4.4320 hc         1 G9O       0.072700
     45 H28         24.6250   -12.4720    -4.9550 hn         1 G9O       0.332500
     46 H29         24.7150   -10.4240    -6.3560 ho         1 G9O       0.448000
@<TRIPOS>BOND
     1     1     2 1   
     2     1    18 1   
     3     1    19 1   
     4     1    20 1   
     5     2     3 1   
     6     2    21 1   
     7     2    22 1   
     8     3     4 1   
     9     3    23 1   
    10     3    24 1   
    11     4     5 1   
    12     4    25 1   
    13     4    26 1   
    14     5     6 1   
    15     5    27 1   
    16     5    28 1   
    17     6     7 1   
    18     6    29 1   
    19     6    30 1   
    20     7     8 1   
    21     7    31 1   
    22     7    32 1   
    23     8     9 1   
    24     8    33 1   
    25     8    34 1   
    26     9    10 1   
    27     9    35 1   
    28     9    36 1   
    29    10    11 1   
    30    10    37 1   
    31    10    38 1   
    32    11    12 1   
    33    11    39 1   
    34    11    40 1   
    35    12    13 1   
    36    12    41 1   
    37    12    42 1   
    38    13    14 1   
    39    13    43 1   
    40    13    44 1   
    41    14    15 2   
    42    14    16 1   
    43    16    17 1   
    44    16    45 1   
    45    17    46 1   
@<TRIPOS>SUBSTRUCTURE
     1 G9O         1 TEMP              0 ****  ****    0 ROOT
