@<TRIPOS>MOLECULE
G9P
   32    35     1     0     0
SMALL
bcc


@<TRIPOS>ATOM
      1 N11          2.3450     2.5700    -0.0360 ns         1 G9P      -0.569900
      2 OAA          4.6010     2.5280    -0.0550 o          1 G9P      -0.658500
      3 OAB         -4.6560     0.4020    -1.4410 o          1 G9P      -0.690867
      4 OAC         -3.9940     1.7810     0.4840 o          1 G9P      -0.690867
      5 OAD         -5.0670    -0.4100     0.8420 o          1 G9P      -0.690867
      6 CAE          4.5270    -1.6530     0.5250 ca         1 G9P      -0.124000
      7 CAF          3.3270    -2.3120     0.3100 ca         1 G9P      -0.136000
      8 CAG          4.5970    -0.2710     0.4280 ca         1 G9P      -0.108000
      9 CAH         -2.5220    -1.7510     0.0770 ca         1 G9P      -0.010000
     10 CAI         -1.2840    -2.3620     0.0190 ca         1 G9P      -0.179000
     11 CAJ         -1.4710     0.3890    -0.2130 ca         1 G9P      -0.011000
     12 CAK          1.0680     1.9270     0.1920 c6         1 G9P       0.111000
     13 OAM          1.0390    -2.2630    -0.2100 os         1 G9P      -0.241200
     14 CAN          3.5310     1.9380     0.0010 c          1 G9P       0.719100
     15 CAO         -2.6170    -0.3690    -0.0340 ca         1 G9P      -0.238500
     16 CAP         -0.1430    -1.5910    -0.1590 ca         1 G9P       0.131100
     17 CAQ          2.1960    -1.5760    -0.0170 ca         1 G9P       0.136100
     18 CAR          3.4560     0.4530     0.1060 ca         1 G9P      -0.121600
     19 CAS         -0.2160    -0.2070    -0.2810 ca         1 G9P      -0.178300
     20 CAT          2.2470    -0.1970    -0.1340 ca         1 G9P      -0.107300
     21 CAU          1.0340     0.5910    -0.5390 c6         1 G9P       0.032900
     22 SAV         -4.2230     0.4210    -0.0340 s6         1 G9P       1.261100
     23 HN11         2.3680     3.5780    -0.0490 hn         1 G9P       0.315500
     24 HAE          5.4100    -2.2230     0.7800 ha         1 G9P       0.128000
     25 HAF          3.2620    -3.3890     0.4000 ha         1 G9P       0.143000
     26 HAG          5.5310     0.2430     0.6080 ha         1 G9P       0.149000
     27 HAH         -3.4070    -2.3570     0.2240 ha         1 G9P       0.154000
     28 HAI         -1.1940    -3.4370     0.1170 ha         1 G9P       0.131000
     29 HAJ         -1.5560     1.4640    -0.3040 ha         1 G9P       0.147000
     30 HAK          0.8840     1.7720     1.2610 h1         1 G9P       0.059200
     31 HAKA         0.2960     2.5960    -0.1820 h1         1 G9P       0.059200
     32 HAU          1.1010     0.7990    -1.6150 hc         1 G9P       0.075700
@<TRIPOS>BOND
     1     1    12 1   
     2     1    14 1   
     3     1    23 1   
     4     2    14 2   
     5     3    22 1   
     6     4    22 1   
     7     5    22 1   
     8     6     7 ar  
     9     6     8 ar  
    10     6    24 1   
    11     7    17 ar  
    12     7    25 1   
    13     8    18 ar  
    14     8    26 1   
    15     9    10 ar  
    16     9    15 ar  
    17     9    27 1   
    18    10    16 ar  
    19    10    28 1   
    20    11    15 ar  
    21    11    19 ar  
    22    11    29 1   
    23    12    21 1   
    24    12    30 1   
    25    12    31 1   
    26    13    16 1   
    27    13    17 1   
    28    14    18 1   
    29    15    22 1   
    30    16    19 ar  
    31    17    20 ar  
    32    18    20 ar  
    33    19    21 1   
    34    20    21 1   
    35    21    32 1   
@<TRIPOS>SUBSTRUCTURE
     1 G9P         1 TEMP              0 ****  ****    0 ROOT
