@<TRIPOS>MOLECULE
G9P
   32    35     1     0     0
SMALL
No Charge or Current Charge


@<TRIPOS>ATOM
      1 N11          2.3660     2.6320     0.0640 ns         1 G9P      -0.502900
      2 OAA          4.6170     2.6020     0.0540 o          1 G9P      -0.583000
      3 OAB         -4.6690     0.4650    -1.4630 o          1 G9P      -0.690867
      4 OAC         -4.0180     1.7730     0.5530 o          1 G9P      -0.690867
      5 OAD         -5.1350    -0.4490     0.8060 o          1 G9P      -0.690867
      6 CAE          4.6200    -1.6900     0.4730 ca         1 G9P      -0.106000
      7 CAF          3.3960    -2.3530     0.2890 ca         1 G9P      -0.118000
      8 CAG          4.6780    -0.2880     0.3940 ca         1 G9P      -0.090000
      9 CAH         -2.5900    -1.7670     0.0930 ca         1 G9P       0.008000
     10 CAI         -1.3340    -2.3940     0.0580 ca         1 G9P      -0.161000
     11 CAJ         -1.5120     0.3910    -0.2390 ca         1 G9P       0.007000
     12 CAK          1.0430     1.9900     0.1240 c6         1 G9P       0.111000
     13 OAM          1.0430    -2.2850    -0.1390 os         1 G9P      -0.241200
     14 CAN          3.5700     1.9720     0.0750 c          1 G9P       0.576600
     15 CAO         -2.6850    -0.3690    -0.0500 ca         1 G9P      -0.238500
     16 CAP         -0.1680    -1.6340    -0.1150 ca         1 G9P       0.131100
     17 CAQ          2.2350    -1.6170     0.0080 ca         1 G9P       0.136100
     18 CAR          3.5140     0.4630     0.1200 ca         1 G9P      -0.121600
     19 CAS         -0.2430    -0.2330    -0.2600 ca         1 G9P      -0.178300
     20 CAT          2.2900    -0.2130    -0.0960 ca         1 G9P      -0.107300
     21 CAU          1.0430     0.5730    -0.5060 c6         1 G9P       0.032900
     22 SAV         -4.3380     0.4610    -0.0300 s6         1 G9P       1.261100
     23 HN11         2.4140     3.6430     0.0340 hn         1 G9P       0.315500
     24 HAE          5.5210    -2.2600     0.6900 ha         1 G9P       0.110000
     25 HAF          3.3450    -3.4360     0.3660 ha         1 G9P       0.125000
     26 HAG          5.6290     0.2150     0.5570 ha         1 G9P       0.131000
     27 HAH         -3.4850    -2.3720     0.2250 ha         1 G9P       0.136000
     28 HAI         -1.2640    -3.4730     0.1670 ha         1 G9P       0.113000
     29 HAJ         -1.5960     1.4650    -0.3820 ha         1 G9P       0.129000
     30 HAK          0.7480     1.9190     1.1810 h1         1 G9P       0.059200
     31 HAKA         0.3170     2.6360    -0.3890 h1         1 G9P       0.059200
     32 HAU          1.1180     0.7170    -1.5930 hc         1 G9P       0.075700
@<TRIPOS>BOND
     1     1    12 1   
     2     1    14 1   
     3     1    23 1   
     4     2    14 2   
     5     3    22 1   
     6     4    22 1   
     7     5    22 1   
     8     6     7 ar  
     9     6     8 ar  
    10     6    24 1   
    11     7    17 ar  
    12     7    25 1   
    13     8    18 ar  
    14     8    26 1   
    15     9    10 ar  
    16     9    15 ar  
    17     9    27 1   
    18    10    16 ar  
    19    10    28 1   
    20    11    15 ar  
    21    11    19 ar  
    22    11    29 1   
    23    12    21 1   
    24    12    30 1   
    25    12    31 1   
    26    13    16 1   
    27    13    17 1   
    28    14    18 1   
    29    15    22 1   
    30    16    19 ar  
    31    17    20 ar  
    32    18    20 ar  
    33    19    21 1   
    34    20    21 1   
    35    21    32 1   
@<TRIPOS>SUBSTRUCTURE
     1 G9P         1 TEMP              0 ****  ****    0 ROOT
