@<TRIPOS>MOLECULE
G9Q
   50    52     1     0     0
SMALL
bcc


@<TRIPOS>ATOM
      1 C4          -3.4290    -0.4960     0.0810 ca         1 G9Q       0.193600
      2 C14          5.4650     1.1360    -0.2130 ca         1 G9Q      -0.114500
      3 C5          -2.7450     0.7510     0.0740 ca         1 G9Q      -0.144300
      4 C6          -2.6380    -1.6650     0.0990 ca         1 G9Q      -0.214000
      5 C11          2.0390    -0.2670     0.0900 cg         1 G9Q      -0.040000
      6 C7          -1.2610    -1.6210     0.1130 ca         1 G9Q      -0.078000
      7 C8          -0.5860    -0.4000     0.0980 ca         1 G9Q       0.016000
      8 C9          -1.3630     0.7620     0.0790 ca         1 G9Q      -0.076000
      9 C10          0.8310    -0.3320     0.0940 ch         1 G9Q      -0.189000
     10 C12          3.4580    -0.1720     0.0800 ca         1 G9Q      -0.034000
     11 C13          4.0840     1.0470    -0.2040 ca         1 G9Q      -0.129000
     12 N1          -4.8010    -0.5680     0.0900 nh         1 G9Q      -0.681000
     13 C3          -5.5700     0.6400    -0.1390 c6         1 G9Q       0.223800
     14 C1          -3.5020     2.0690     0.0170 c6         1 G9Q       0.011300
     15 C2          -4.9200     1.8280     0.5290 c6         1 G9Q      -0.080400
     16 C15          6.2630     0.0260     0.0530 ca         1 G9Q      -0.113600
     17 C16          5.6360    -1.1870     0.3340 ca         1 G9Q      -0.114500
     18 C17          4.2550    -1.2910     0.3500 ca         1 G9Q      -0.129000
     19 C18          7.7820     0.1370     0.0360 c          1 G9Q       0.921200
     20 O1           8.2550     1.2680    -0.1870 o          1 G9Q      -0.822800
     21 O2           8.4190    -0.9120     0.2460 o          1 G9Q      -0.822800
     22 C19         -5.4720    -1.8400    -0.1780 c3         1 G9Q       0.235500
     23 C20         -6.8930    -1.8840     0.3700 c3         1 G9Q      -0.108100
     24 C21         -5.4410    -2.1920    -1.6640 c3         1 G9Q      -0.108100
     25 C22         -3.5360     2.5680    -1.4340 c3         1 G9Q      -0.080600
     26 C23         -2.8570     3.1430     0.8960 c3         1 G9Q      -0.080600
     27 H2          -3.0930    -2.6430     0.1010 ha         1 G9Q       0.122000
     28 H3          -0.7030    -2.5490     0.1270 ha         1 G9Q       0.133000
     29 H4          -0.8440     1.7130     0.0600 ha         1 G9Q       0.134000
     30 H5           3.4810     1.9200    -0.4180 ha         1 G9Q       0.111000
     31 H6          -5.7140     0.8290    -1.2110 h1         1 G9Q       0.030700
     32 H7          -6.5650     0.5080     0.2830 h1         1 G9Q       0.030700
     33 H8          -5.5340     2.7150     0.3590 hc         1 G9Q       0.047700
     34 H9          -4.8960     1.6570     1.6100 hc         1 G9Q       0.047700
     35 H10          6.2370    -2.0620     0.5440 ha         1 G9Q       0.148000
     36 H11          3.7840    -2.2390     0.5770 ha         1 G9Q       0.111000
     37 H13         -4.9340    -2.6120     0.3720 h1         1 G9Q       0.059700
     38 H14         -7.2450    -2.9140     0.3360 hc         1 G9Q       0.038367
     39 H15         -6.9320    -1.5560     1.4090 hc         1 G9Q       0.038367
     40 H16         -7.5970    -1.2840    -0.2080 hc         1 G9Q       0.038367
     41 H17         -4.4210    -2.2150    -2.0490 hc         1 G9Q       0.038367
     42 H18         -5.8810    -3.1740    -1.8390 hc         1 G9Q       0.038367
     43 H19         -6.0060    -1.4670    -2.2520 hc         1 G9Q       0.038367
     44 H20         -3.9670     1.8310    -2.1120 hc         1 G9Q       0.034033
     45 H21         -4.1290     3.4820    -1.5140 hc         1 G9Q       0.034033
     46 H22         -2.5300     2.7880    -1.7940 hc         1 G9Q       0.034033
     47 H23         -1.8880     3.4690     0.5190 hc         1 G9Q       0.034033
     48 H24         -3.4980     4.0260     0.9340 hc         1 G9Q       0.034033
     49 H25         -2.7200     2.7880     1.9190 hc         1 G9Q       0.034033
     50 H1           5.9360     2.0840    -0.4360 ha         1 G9Q       0.148000
@<TRIPOS>BOND
     1     1     3 ar  
     2     1     4 ar  
     3     1    12 1   
     4     2    11 ar  
     5     2    16 ar  
     6     2    50 1   
     7     3     8 ar  
     8     3    14 1   
     9     4     6 ar  
    10     4    27 1   
    11     5     9 3   
    12     5    10 1   
    13     6     7 ar  
    14     6    28 1   
    15     7     8 ar  
    16     7     9 1   
    17     8    29 1   
    18    10    11 ar  
    19    10    18 ar  
    20    11    30 1   
    21    12    13 1   
    22    12    22 1   
    23    13    15 1   
    24    13    31 1   
    25    13    32 1   
    26    14    15 1   
    27    14    25 1   
    28    14    26 1   
    29    15    33 1   
    30    15    34 1   
    31    16    17 ar  
    32    16    19 1   
    33    17    18 ar  
    34    17    35 1   
    35    18    36 1   
    36    19    20 1   
    37    19    21 1   
    38    22    23 1   
    39    22    24 1   
    40    22    37 1   
    41    23    38 1   
    42    23    39 1   
    43    23    40 1   
    44    24    41 1   
    45    24    42 1   
    46    24    43 1   
    47    25    44 1   
    48    25    45 1   
    49    25    46 1   
    50    26    47 1   
    51    26    48 1   
    52    26    49 1   
@<TRIPOS>SUBSTRUCTURE
     1 G9Q         1 TEMP              0 ****  ****    0 ROOT
