@<TRIPOS>MOLECULE
G9Q
   50    52     1     0     0
SMALL
No Charge or Current Charge


@<TRIPOS>ATOM
      1 C4          -3.4740    -0.3340     0.2280 ca         1 G9Q       0.332000
      2 C14          5.8830     0.9270    -0.2050 ca         1 G9Q      -0.096500
      3 C5          -3.0130     0.9830     0.0850 ca         1 G9Q      -0.144300
      4 C6          -2.5070    -1.3710     0.3550 ca         1 G9Q      -0.196000
      5 C11          2.3010    -0.1230     0.1500 cg         1 G9Q      -0.040000
      6 C7          -1.0860    -1.2440     0.3290 ca         1 G9Q      -0.060000
      7 C8          -0.3430    -0.0500     0.1760 ca         1 G9Q       0.016000
      8 C9          -1.0060     1.1630     0.0430 ca         1 G9Q      -0.058000
      9 C10          1.0810    -0.0840     0.1680 ch         1 G9Q      -0.189000
     10 C12          3.7330    -0.1770     0.1160 ca         1 G9Q      -0.034000
     11 C13          4.4780     0.9790    -0.1720 ca         1 G9Q      -0.111000
     12 N1          -4.8810    -0.6140     0.2450 nh         1 G9Q      -0.819400
     13 C3          -5.8580     0.5200     0.3420 c6         1 G9Q       0.223800
     14 C1          -3.9430     2.1850    -0.0130 c6         1 G9Q       0.011300
     15 C2          -5.2200     1.8520     0.7930 c6         1 G9Q      -0.080400
     16 C15          6.5690    -0.2840     0.0500 ca         1 G9Q      -0.113600
     17 C16          5.8060    -1.4410     0.3380 ca         1 G9Q      -0.096500
     18 C17          4.4020    -1.3870     0.3710 ca         1 G9Q      -0.111000
     19 C18          8.0900    -0.3420     0.0140 c          1 G9Q       0.710600
     20 O1           8.7100     0.6820    -0.2400 o          1 G9Q      -0.717500
     21 O2           8.6420    -1.4100     0.2410 o          1 G9Q      -0.717500
     22 C19         -5.4100    -1.8960    -0.3100 c3         1 G9Q       0.235500
     23 C20         -6.8800    -2.2050     0.0650 c3         1 G9Q      -0.108100
     24 C21         -5.2050    -1.9830    -1.8380 c3         1 G9Q      -0.108100
     25 C22         -4.2580     2.4730    -1.5120 c3         1 G9Q      -0.080600
     26 C23         -3.2530     3.4500     0.5750 c3         1 G9Q      -0.080600
     27 H2          -2.8630    -2.3830     0.4980 ha         1 G9Q       0.104000
     28 H3          -0.5180    -2.1650     0.4410 ha         1 G9Q       0.115000
     29 H4          -0.4960     2.1170    -0.0670 ha         1 G9Q       0.116000
     30 H5           3.9710     1.9210    -0.3700 ha         1 G9Q       0.093000
     31 H6          -6.3430     0.6730    -0.6330 h1         1 G9Q       0.030700
     32 H7          -6.6520     0.2740     1.0620 h1         1 G9Q       0.030700
     33 H8          -5.9560     2.6630     0.7070 hc         1 G9Q       0.047700
     34 H9          -4.9690     1.7760     1.8600 hc         1 G9Q       0.047700
     35 H10          6.3010    -2.3890     0.5390 ha         1 G9Q       0.130000
     36 H11          3.8350    -2.2880     0.5950 ha         1 G9Q       0.093000
     37 H13         -4.8500    -2.7290     0.1340 h1         1 G9Q       0.059700
     38 H14         -7.1510    -3.2160    -0.2610 hc         1 G9Q       0.038367
     39 H15         -7.0210    -2.1560     1.1510 hc         1 G9Q       0.038367
     40 H16         -7.5740    -1.5030    -0.4120 hc         1 G9Q       0.038367
     41 H17         -4.1450    -1.8790    -2.0970 hc         1 G9Q       0.038367
     42 H18         -5.5510    -2.9500    -2.2200 hc         1 G9Q       0.038367
     43 H19         -5.7630    -1.1900    -2.3510 hc         1 G9Q       0.038367
     44 H20         -4.6920     1.5980    -2.0110 hc         1 G9Q       0.034033
     45 H21         -4.9660     3.3030    -1.6200 hc         1 G9Q       0.034033
     46 H22         -3.3490     2.7380    -2.0640 hc         1 G9Q       0.034033
     47 H23         -2.3600     3.7280     0.0020 hc         1 G9Q       0.034033
     48 H24         -3.9290     4.3130     0.5660 hc         1 G9Q       0.034033
     49 H25         -2.9410     3.2850     1.6130 hc         1 G9Q       0.034033
     50 H1           6.4380     1.8360    -0.4300 ha         1 G9Q       0.130000
@<TRIPOS>BOND
     1     1     3 ar  
     2     1     4 ar  
     3     1    12 1   
     4     2    11 ar  
     5     2    16 ar  
     6     2    50 1   
     7     3     8 ar  
     8     3    14 1   
     9     4     6 ar  
    10     4    27 1   
    11     5     9 3   
    12     5    10 1   
    13     6     7 ar  
    14     6    28 1   
    15     7     8 ar  
    16     7     9 1   
    17     8    29 1   
    18    10    11 ar  
    19    10    18 ar  
    20    11    30 1   
    21    12    13 1   
    22    12    22 1   
    23    13    15 1   
    24    13    31 1   
    25    13    32 1   
    26    14    15 1   
    27    14    25 1   
    28    14    26 1   
    29    15    33 1   
    30    15    34 1   
    31    16    17 ar  
    32    16    19 1   
    33    17    18 ar  
    34    17    35 1   
    35    18    36 1   
    36    19    20 1   
    37    19    21 1   
    38    22    23 1   
    39    22    24 1   
    40    22    37 1   
    41    23    38 1   
    42    23    39 1   
    43    23    40 1   
    44    24    41 1   
    45    24    42 1   
    46    24    43 1   
    47    25    44 1   
    48    25    45 1   
    49    25    46 1   
    50    26    47 1   
    51    26    48 1   
    52    26    49 1   
@<TRIPOS>SUBSTRUCTURE
     1 G9Q         1 TEMP              0 ****  ****    0 ROOT
