@<TRIPOS>MOLECULE
G9U
   41    44     1     0     0
SMALL
abcg2


@<TRIPOS>ATOM
      1 C10        -17.4990    67.1100   -41.3980 c3         1 G9U      -0.155700
      2 C13        -18.4560    66.6660   -43.6840 cc         1 G9U      -0.139400
      3 C15        -17.8170    65.4450   -45.5130 ca         1 G9U      -0.050200
      4 C17        -17.3640    64.3620   -46.2650 ca         1 G9U      -0.101000
      5 C20        -17.7260    64.1730   -43.4580 ca         1 G9U      -0.060000
      6 C01        -16.9160    66.1090   -36.6070 ca         1 G9U      -0.126000
      7 C02        -15.5670    65.8150   -36.7560 ca         1 G9U      -0.084000
      8 C03        -14.9280    66.0950   -37.9520 ca         1 G9U      -0.128000
      9 C04        -15.6080    66.6440   -39.0400 ca         1 G9U      -0.033300
     10 C05        -16.9730    66.9310   -38.8850 ca         1 G9U      -0.167600
     11 C06        -17.6040    66.6770   -37.6630 ca         1 G9U      -0.063000
     12 C07        -14.8150    66.9490   -40.2860 c3         1 G9U      -0.037100
     13 C08        -15.2280    68.2330   -41.0070 c3         1 G9U      -0.076400
     14 C09        -16.4120    68.0430   -41.9490 c3         1 G9U      -0.064400
     15 C11        -17.8310    67.4880   -39.9730 c          1 G9U       0.588700
     16 O01        -18.7910    68.1800   -39.7040 o          1 G9U      -0.526100
     17 C12        -18.7500    67.1020   -42.2870 c3         1 G9U       0.008800
     18 C14        -18.5310    67.4300   -44.8130 cd         1 G9U      -0.151100
     19 N01        -18.1530    66.7030   -45.9080 na         1 G9U      -0.221700
     20 C16        -17.9990    65.3770   -44.1130 ca         1 G9U      -0.088800
     21 C18        -17.0970    63.2000   -45.5700 ca         1 G9U       0.003100
     22 C19        -17.2750    63.0880   -44.1840 ca         1 G9U      -0.120000
     23 BR1        -16.4560    61.6940   -46.5240 br         1 G9U      -0.108100
     24 H11        -17.0840    66.0970   -41.3750 hc         1 G9U       0.068700
     25 H16        -17.2300    64.4380   -47.3360 ha         1 G9U       0.129000
     26 H18        -17.8640    64.0760   -42.3880 ha         1 G9U       0.119000
     27 H01        -17.4240    65.9020   -35.6740 ha         1 G9U       0.118000
     28 H02        -15.0100    65.3780   -35.9370 ha         1 G9U       0.114000
     29 H03        -13.8690    65.8890   -38.0480 ha         1 G9U       0.112000
     30 H04        -18.6550    66.9090   -37.5520 ha         1 G9U       0.129000
     31 H06        -14.8690    66.1010   -40.9790 hc         1 G9U       0.052200
     32 H05        -13.7650    67.0180   -39.9980 hc         1 G9U       0.052200
     33 H08        -14.3800    68.6080   -41.5820 hc         1 G9U       0.047200
     34 H07        -15.4470    69.0040   -40.2620 hc         1 G9U       0.047200
     35 H10        -16.0610    67.6130   -42.8890 hc         1 G9U       0.050200
     36 H09        -16.8550    69.0120   -42.1930 hc         1 G9U       0.050200
     37 H12        -19.1900    68.1010   -42.3080 hc         1 G9U       0.057700
     38 H13        -19.4990    66.4400   -41.8410 hc         1 G9U       0.057700
     39 H14        -18.8290    68.4620   -44.9180 h4         1 G9U       0.215000
     40 H15        -18.1290    67.0480   -46.8530 hn         1 G9U       0.354000
     41 H17        -17.0610    62.1550   -43.6790 ha         1 G9U       0.128000
@<TRIPOS>BOND
     1     1    14 1   
     2     1    15 1   
     3     1    17 1   
     4     1    24 1   
     5     2    17 1   
     6     2    18 2   
     7     2    20 1   
     8     3     4 ar  
     9     3    19 1   
    10     3    20 ar  
    11     4    21 ar  
    12     4    25 1   
    13     5    20 ar  
    14     5    22 ar  
    15     5    26 1   
    16     6     7 ar  
    17     6    11 ar  
    18     6    27 1   
    19     7     8 ar  
    20     7    28 1   
    21     8     9 ar  
    22     8    29 1   
    23     9    10 ar  
    24     9    12 1   
    25    10    11 ar  
    26    10    15 1   
    27    11    30 1   
    28    12    13 1   
    29    12    31 1   
    30    12    32 1   
    31    13    14 1   
    32    13    33 1   
    33    13    34 1   
    34    14    35 1   
    35    14    36 1   
    36    15    16 2   
    37    17    37 1   
    38    17    38 1   
    39    18    19 1   
    40    18    39 1   
    41    19    40 1   
    42    21    22 ar  
    43    21    23 1   
    44    22    41 1   
@<TRIPOS>SUBSTRUCTURE
     1 G9U         1 TEMP              0 ****  ****    0 ROOT
