@<TRIPOS>MOLECULE
G9U
   41    44     1     0     0
SMALL
No Charge or Current Charge


@<TRIPOS>ATOM
      1 C10        -17.4720    67.2240   -41.4360 c3         1 G9U      -0.155700
      2 C13        -18.4150    66.6790   -43.7430 cc         1 G9U      -0.139400
      3 C15        -17.8120    65.3740   -45.4920 ca         1 G9U      -0.050200
      4 C17        -17.4160    64.2220   -46.1860 ca         1 G9U      -0.101000
      5 C20        -17.8690    64.1870   -43.3830 ca         1 G9U      -0.060000
      6 C01        -16.9170    65.7860   -36.7150 ca         1 G9U      -0.126000
      7 C02        -15.5360    65.5930   -36.8440 ca         1 G9U      -0.084000
      8 C03        -14.8700    66.0530   -37.9900 ca         1 G9U      -0.128000
      9 C04        -15.5660    66.7090   -39.0270 ca         1 G9U      -0.033300
     10 C05        -16.9760    66.8820   -38.9020 ca         1 G9U      -0.167600
     11 C06        -17.6320    66.4290   -37.7370 ca         1 G9U      -0.063000
     12 C07        -14.7320    67.2200   -40.2160 c3         1 G9U      -0.037100
     13 C08        -15.2690    68.4840   -40.9310 c3         1 G9U      -0.076400
     14 C09        -16.3980    68.2090   -41.9540 c3         1 G9U      -0.064400
     15 C11        -17.8120    67.5380   -39.9720 c          1 G9U       0.588700
     16 O01        -18.6910    68.3410   -39.6760 o          1 G9U      -0.526100
     17 C12        -18.7270    67.1430   -42.3440 c3         1 G9U       0.008800
     18 C14        -18.4190    67.4430   -44.9060 cd         1 G9U      -0.151100
     19 N01        -18.0420    66.6370   -46.0080 na         1 G9U      -0.221700
     20 C16        -18.0270    65.3550   -44.1430 ca         1 G9U      -0.088800
     21 C18        -17.2440    63.0320   -45.4500 ca         1 G9U       0.003100
     22 C19        -17.4700    63.0110   -44.0540 ca         1 G9U      -0.120000
     23 Br1        -16.7040    61.4310   -46.3460 br         1 G9U      -0.108100
     24 H11        -16.9860    66.2420   -41.4310 hc         1 G9U       0.068700
     25 H16        -17.2460    64.2440   -47.2600 ha         1 G9U       0.129000
     26 H18        -18.0490    64.1820   -42.3110 ha         1 G9U       0.119000
     27 H01        -17.4360    65.4350   -35.8250 ha         1 G9U       0.118000
     28 H02        -14.9800    65.0920   -36.0540 ha         1 G9U       0.114000
     29 H03        -13.7950    65.9040   -38.0680 ha         1 G9U       0.112000
     30 H04        -18.7070    66.5640   -37.6270 ha         1 G9U       0.129000
     31 H06        -14.5930    66.4160   -40.9510 hc         1 G9U       0.052200
     32 H05        -13.7230    67.4610   -39.8590 hc         1 G9U       0.052200
     33 H08        -14.4410    68.9670   -41.4650 hc         1 G9U       0.047200
     34 H07        -15.6080    69.2090   -40.1810 hc         1 G9U       0.047200
     35 H10        -15.9570    67.8060   -42.8750 hc         1 G9U       0.050200
     36 H09        -16.8670    69.1640   -42.2220 hc         1 G9U       0.050200
     37 H12        -19.2160    68.1250   -42.3810 hc         1 G9U       0.057700
     38 H13        -19.4530    66.4570   -41.8910 hc         1 G9U       0.057700
     39 H14        -18.6530    68.4980   -45.0260 h4         1 G9U       0.215000
     40 H15        -17.9560    66.9260   -46.9780 hn         1 G9U       0.354000
     41 H17        -17.3370    62.0880   -43.4950 ha         1 G9U       0.128000
@<TRIPOS>BOND
     1     1    14 1   
     2     1    15 1   
     3     1    17 1   
     4     1    24 1   
     5     2    17 1   
     6     2    18 2   
     7     2    20 1   
     8     3     4 ar  
     9     3    19 1   
    10     3    20 ar  
    11     4    21 ar  
    12     4    25 1   
    13     5    20 ar  
    14     5    22 ar  
    15     5    26 1   
    16     6     7 ar  
    17     6    11 ar  
    18     6    27 1   
    19     7     8 ar  
    20     7    28 1   
    21     8     9 ar  
    22     8    29 1   
    23     9    10 ar  
    24     9    12 1   
    25    10    11 ar  
    26    10    15 1   
    27    11    30 1   
    28    12    13 1   
    29    12    31 1   
    30    12    32 1   
    31    13    14 1   
    32    13    33 1   
    33    13    34 1   
    34    14    35 1   
    35    14    36 1   
    36    15    16 2   
    37    17    37 1   
    38    17    38 1   
    39    18    19 1   
    40    18    39 1   
    41    19    40 1   
    42    21    22 ar  
    43    21    23 1   
    44    22    41 1   
@<TRIPOS>SUBSTRUCTURE
     1 G9U         1 TEMP              0 ****  ****    0 ROOT
