@<TRIPOS>MOLECULE
G9V
   57    61     1     0     0
SMALL
No Charge or Current Charge


@<TRIPOS>ATOM
      1 C7           2.2470     1.5430     0.2480 ca         1 G9V      -0.091000
      2 C9           0.9530    -0.5110     0.5020 ca         1 G9V      -0.089000
      3 N2           0.8350     3.4560    -0.5300 na         1 G9V      -0.178600
      4 C10         -0.2410     0.1370     0.0930 ca         1 G9V       0.040200
      5 C6           1.0590     2.1670    -0.1480 ca         1 G9V      -0.092200
      6 C29          4.9320     0.3170    -0.8080 c6         1 G9V       0.059500
      7 N20         -2.6700    -3.9650    -0.5510 na         1 G9V      -0.076000
      8 C18         -0.7190    -2.9320    -0.7710 cc         1 G9V      -0.191000
      9 C11         -1.5120    -0.6140     0.0360 cc         1 G9V      -0.068400
     10 C1           1.8810     4.4890    -0.5740 c3         1 G9V       0.066900
     11 C8           2.2000     0.1660     0.5660 ca         1 G9V      -0.125600
     12 C16         -2.8630    -2.6340    -0.1520 cd         1 G9V      -0.260600
     13 C5          -0.1430     1.5150    -0.2290 ca         1 G9V       0.082400
     14 N13         -3.8960    -0.5800     0.6250 n          1 G9V      -0.276000
     15 C24         -6.8690     1.8820     0.5250 c2         1 G9V      -0.216200
     16 C25         -6.9090     3.2230     0.5800 c2         1 G9V      -0.317000
     17 C32          6.7140    -1.6550     0.3560 c6         1 G9V       0.130100
     18 C17         -1.6610    -2.0110    -0.2710 cc         1 G9V      -0.027800
     19 C22         -5.0520     0.2090     1.1140 c3         1 G9V       0.096000
     20 O31          6.9530    -1.0820    -0.9470 os         1 G9V      -0.445000
     21 C12         -2.6410     0.0420     0.5090 cd         1 G9V      -0.027400
     22 C19         -1.3330    -4.1450    -0.9400 cd         1 G9V      -0.153000
     23 C14         -4.0880    -1.9490     0.3050 c          1 G9V       0.588600
     24 N28          4.7040    -0.1470     0.5980 n          1 G9V      -0.411800
     25 C33          5.9590    -0.6360     1.2470 c6         1 G9V       0.059500
     26 C3          -0.5130     3.5650    -0.8620 cc         1 G9V       0.422700
     27 C23         -5.7020     1.0650     0.0080 c3         1 G9V      -0.069200
     28 C26          3.4310    -0.5820     1.0390 c          1 G9V       0.617700
     29 C30          5.7370    -0.7200    -1.6370 c6         1 G9V       0.130100
     30 O27          3.3290    -1.4920     1.8540 o          1 G9V      -0.590100
     31 N4          -1.1420     2.3830    -0.6920 nd         1 G9V      -0.580100
     32 H1           3.1720     2.1100     0.3230 ha         1 G9V       0.124000
     33 H2           0.9120    -1.5520     0.8090 ha         1 G9V       0.138000
     34 H4           5.4790     1.2700    -0.7880 h1         1 G9V       0.065200
     35 H5          -3.3910    -4.6830    -0.5690 hn         1 G9V       0.365000
     36 H6           0.3150    -2.7080    -1.0130 ha         1 G9V       0.138000
     37 H7           2.6710     4.1840    -1.2710 h1         1 G9V       0.053033
     38 H8           1.4510     5.4400    -0.9110 h1         1 G9V       0.053033
     39 H9           2.3100     4.6220     0.4270 h1         1 G9V       0.053033
     40 H10         -7.7250     1.2900     0.8620 ha         1 G9V       0.170000
     41 H11         -7.7840     3.7520     0.9610 ha         1 G9V       0.161500
     42 H12         -6.0720     3.8380     0.2470 ha         1 G9V       0.161500
     43 H13          6.1210    -2.5750     0.2480 h1         1 G9V       0.054700
     44 H14          7.6760    -1.9180     0.8180 h1         1 G9V       0.054700
     45 H15         -5.8080    -0.4560     1.5510 h1         1 G9V       0.064700
     46 H16         -4.7100     0.8700     1.9210 h1         1 G9V       0.064700
     47 H17         -2.6460     1.0710     0.8510 h4         1 G9V       0.214000
     48 H18         -0.9460    -5.0890    -1.3080 h4         1 G9V       0.147000
     49 H19          5.7430    -1.0930     2.2230 h1         1 G9V       0.065200
     50 H20          6.6150     0.2250     1.4380 h1         1 G9V       0.065200
     51 H21         -0.9570     4.4910    -1.2090 h5         1 G9V       0.061800
     52 H22         -6.0400     0.4050    -0.8010 hc         1 G9V       0.061200
     53 H23         -4.9380     1.7220    -0.4260 hc         1 G9V       0.061200
     54 H24          5.1310    -1.6240    -1.7990 h1         1 G9V       0.054700
     55 H25          5.9910    -0.2990    -2.6200 h1         1 G9V       0.054700
     56 O15         -5.1660    -2.5230     0.3930 o          1 G9V      -0.579000
     57 H3           3.9800     0.4940    -1.3260 h1         1 G9V       0.065200
@<TRIPOS>BOND
     1     1     5 ar  
     2     1    11 ar  
     3     1    32 1   
     4     2     4 ar  
     5     2    11 ar  
     6     2    33 1   
     7     3     5 1   
     8     3    10 1   
     9     3    26 1   
    10     4     9 1   
    11     4    13 ar  
    12     5    13 ar  
    13     6    24 1   
    14     6    29 1   
    15     6    34 1   
    16     6    57 1   
    17     7    12 1   
    18     7    22 1   
    19     7    35 1   
    20     8    18 1   
    21     8    22 2   
    22     8    36 1   
    23     9    18 1   
    24     9    21 2   
    25    10    37 1   
    26    10    38 1   
    27    10    39 1   
    28    11    28 1   
    29    12    18 2   
    30    12    23 1   
    31    13    31 1   
    32    14    19 1   
    33    14    21 1   
    34    14    23 1   
    35    15    16 2   
    36    15    27 1   
    37    15    40 1   
    38    16    41 1   
    39    16    42 1   
    40    17    20 1   
    41    17    25 1   
    42    17    43 1   
    43    17    44 1   
    44    19    27 1   
    45    19    45 1   
    46    19    46 1   
    47    20    29 1   
    48    21    47 1   
    49    22    48 1   
    50    23    56 2   
    51    24    25 1   
    52    24    28 1   
    53    25    49 1   
    54    25    50 1   
    55    26    31 2   
    56    26    51 1   
    57    27    52 1   
    58    27    53 1   
    59    28    30 2   
    60    29    54 1   
    61    29    55 1   
@<TRIPOS>SUBSTRUCTURE
     1 G9V         1 TEMP              0 ****  ****    0 ROOT
