@<TRIPOS>MOLECULE
G9V
   57    61     1     0     0
SMALL
bcc


@<TRIPOS>ATOM
      1 C7           2.3610     1.7230     0.3280 ca         1 G9V      -0.109000
      2 C9           1.0660    -0.3080     0.6540 ca         1 G9V      -0.107000
      3 N2           0.8900     3.5990    -0.4690 na         1 G9V      -0.149300
      4 C10         -0.1220     0.2840     0.2480 ca         1 G9V       0.040200
      5 C6           1.1710     2.3230    -0.0600 ca         1 G9V      -0.092200
      6 C29          4.7900     0.1180    -0.8410 c6         1 G9V       0.059500
      7 N20         -2.5450    -3.7080    -0.7590 na         1 G9V      -0.127100
      8 C18         -0.5430    -2.7370    -0.8370 cc         1 G9V      -0.209000
      9 C11         -1.3810    -0.4730     0.2140 cc         1 G9V      -0.068400
     10 C1           1.8280     4.6890    -0.5840 c3         1 G9V       0.037600
     11 C8           2.2870     0.3840     0.6800 ca         1 G9V      -0.125600
     12 C16         -2.6960    -2.4620    -0.2320 cd         1 G9V      -0.209900
     13 C5          -0.0550     1.6390    -0.1140 ca         1 G9V       0.082400
     14 N13         -3.7420    -0.5820     0.6760 n          1 G9V      -0.343000
     15 C24         -6.8460     1.5850     0.4680 c2         1 G9V      -0.166200
     16 C25         -6.9940     2.9040     0.4550 c2         1 G9V      -0.217000
     17 C32          6.3930    -1.9090     0.3070 c6         1 G9V       0.106900
     18 C17         -1.4610    -1.8220    -0.2610 cc         1 G9V      -0.027800
     19 C22         -4.9180     0.1540     1.1300 c3         1 G9V       0.096000
     20 O31          6.5640    -1.5350    -1.0430 os         1 G9V      -0.398600
     21 C12         -2.5410     0.0770     0.6540 cd         1 G9V       0.022600
     22 C19         -1.2540    -3.8790    -1.1240 cd         1 G9V      -0.120300
     23 C14         -3.9150    -1.8780     0.2240 c          1 G9V       0.731100
     24 N28          4.6470    -0.2250     0.5650 n          1 G9V      -0.478800
     25 C33          5.8780    -0.7460     1.1360 c6         1 G9V       0.059500
     26 C3          -0.4350     3.6260    -0.7460 cc         1 G9V       0.422700
     27 C23         -5.6340     0.8590    -0.0210 c3         1 G9V      -0.069200
     28 C26          3.4810    -0.3240     1.2390 c          1 G9V       0.684700
     29 C30          5.3570    -1.0730    -1.6030 c6         1 G9V       0.106900
     30 O27          3.3760    -0.9270     2.3000 o          1 G9V      -0.590100
     31 N4          -1.0400     2.4870    -0.5520 nd         1 G9V      -0.580100
     32 H1           3.2920     2.2750     0.3680 ha         1 G9V       0.142000
     33 H2           1.0530    -1.3410     0.9770 ha         1 G9V       0.156000
     34 H4           5.4570     0.9800    -0.9380 h1         1 G9V       0.065200
     35 H5          -3.2800    -4.3880    -0.8660 hn         1 G9V       0.314700
     36 H6           0.5060    -2.5860    -1.0310 ha         1 G9V       0.156000
     37 H7           2.6740     4.3960    -1.2020 h1         1 G9V       0.053033
     38 H8           1.3340     5.5360    -1.0510 h1         1 G9V       0.053033
     39 H9           2.1930     4.9910     0.3970 h1         1 G9V       0.053033
     40 H10         -7.6430     0.9660     0.8740 ha         1 G9V       0.120000
     41 H11         -7.8900     3.3780     0.8320 ha         1 G9V       0.111500
     42 H12         -6.2230     3.5590     0.0640 ha         1 G9V       0.111500
     43 H13          5.6980    -2.7550     0.3910 h1         1 G9V       0.054700
     44 H14          7.3650    -2.2310     0.6820 h1         1 G9V       0.054700
     45 H15         -5.5900    -0.5370     1.6360 h1         1 G9V       0.064700
     46 H16         -4.5900     0.8840     1.8690 h1         1 G9V       0.064700
     47 H17         -2.5780     1.0890     1.0290 h4         1 G9V       0.164000
     48 H18         -0.9210    -4.8030    -1.5680 h4         1 G9V       0.165000
     49 H19          5.7110    -1.0600     2.1630 h1         1 G9V       0.065200
     50 H20          6.6200     0.0590     1.1470 h1         1 G9V       0.065200
     51 H21         -0.9110     4.5300    -1.0980 h5         1 G9V       0.061800
     52 H22         -5.9240     0.1130    -0.7660 hc         1 G9V       0.061200
     53 H23         -4.9460     1.5560    -0.5080 hc         1 G9V       0.061200
     54 H24          4.6060    -1.8760    -1.6230 h1         1 G9V       0.054700
     55 H25          5.5630    -0.7810    -2.6330 h1         1 G9V       0.054700
     56 O15         -5.0120    -2.4350     0.2250 o          1 G9V      -0.654500
     57 H3           3.8310     0.3860    -1.2770 h1         1 G9V       0.065200
@<TRIPOS>BOND
     1     1     5 ar  
     2     1    11 ar  
     3     1    32 1   
     4     2     4 ar  
     5     2    11 ar  
     6     2    33 1   
     7     3     5 1   
     8     3    10 1   
     9     3    26 1   
    10     4     9 1   
    11     4    13 ar  
    12     5    13 ar  
    13     6    24 1   
    14     6    29 1   
    15     6    34 1   
    16     6    57 1   
    17     7    12 1   
    18     7    22 1   
    19     7    35 1   
    20     8    18 1   
    21     8    22 2   
    22     8    36 1   
    23     9    18 1   
    24     9    21 2   
    25    10    37 1   
    26    10    38 1   
    27    10    39 1   
    28    11    28 1   
    29    12    18 2   
    30    12    23 1   
    31    13    31 1   
    32    14    19 1   
    33    14    21 1   
    34    14    23 1   
    35    15    16 2   
    36    15    27 1   
    37    15    40 1   
    38    16    41 1   
    39    16    42 1   
    40    17    20 1   
    41    17    25 1   
    42    17    43 1   
    43    17    44 1   
    44    19    27 1   
    45    19    45 1   
    46    19    46 1   
    47    20    29 1   
    48    21    47 1   
    49    22    48 1   
    50    23    56 2   
    51    24    25 1   
    52    24    28 1   
    53    25    49 1   
    54    25    50 1   
    55    26    31 2   
    56    26    51 1   
    57    27    52 1   
    58    27    53 1   
    59    28    30 2   
    60    29    54 1   
    61    29    55 1   
@<TRIPOS>SUBSTRUCTURE
     1 G9V         1 TEMP              0 ****  ****    0 ROOT
