@<TRIPOS>MOLECULE
G9W
   38    40     1     0     0
SMALL
bcc


@<TRIPOS>ATOM
      1 C1          -0.4430     0.9000     0.0460 cc         1 G9W       0.067400
      2 N2           0.3550     2.0110     0.0020 ns         1 G9W      -0.447100
      3 C3           1.7140     2.0100     0.0380 c          1 G9W       0.713100
      4 O4           2.3470     3.0590     0.0480 o          1 G9W      -0.635500
      5 C5           2.3200     0.6770     0.0360 ca         1 G9W      -0.170600
      6 C6           1.5310    -0.4990     0.0160 ca         1 G9W       0.042200
      7 C7           0.0860    -0.3450     0.0840 cd         1 G9W      -0.189400
      8 C8          -0.8810    -1.4960     0.2640 c6         1 G9W       0.195600
      9 O9          -2.1500    -1.0750     0.6830 os         1 G9W      -0.402600
     10 C10         -2.7070    -0.0890    -0.1590 c6         1 G9W       0.153100
     11 C11         -4.1880     0.0570     0.1710 c3         1 G9W      -0.057700
     12 C12         -4.8140     1.1830    -0.6480 c3         1 G9W      -0.087600
     13 C13         -4.9370    -1.2510    -0.0610 c3         1 G9W      -0.087600
     14 C14         -1.9110     1.1890     0.0420 c6         1 G9W      -0.081200
     15 C15          2.2160    -1.7430    -0.0800 ca         1 G9W      -0.090300
     16 C16          1.5470    -3.0850    -0.2290 c3         1 G9W      -0.046800
     17 C17          3.6010    -1.7460    -0.0850 ca         1 G9W      -0.099000
     18 C18          4.3620    -0.5810    -0.0170 ca         1 G9W      -0.149000
     19 C19          3.7160     0.6290     0.0270 ca         1 G9W      -0.067000
     20 H2          -0.9680    -2.0800    -0.6630 h1         1 G9W       0.054200
     21 H3          -0.5230    -2.1690     1.0420 h1         1 G9W       0.054200
     22 H4          -2.6120    -0.4040    -1.2110 h1         1 G9W       0.041700
     23 H5          -4.2660     0.3220     1.2330 hc         1 G9W       0.060700
     24 H6          -4.6670     1.0220    -1.7190 hc         1 G9W       0.036700
     25 H7          -5.8890     1.2320    -0.4680 hc         1 G9W       0.036700
     26 H8          -4.4000     2.1600    -0.3970 hc         1 G9W       0.036700
     27 H9          -4.8870    -1.5480    -1.1110 hc         1 G9W       0.036700
     28 H10         -4.5350    -2.0680     0.5380 hc         1 G9W       0.036700
     29 H11         -5.9900    -1.1380     0.1990 hc         1 G9W       0.036700
     30 H12         -2.1960     1.6700     0.9850 hc         1 G9W       0.067200
     31 H13         -2.1250     1.9070    -0.7550 hc         1 G9W       0.067200
     32 H14          0.8100    -3.0980    -1.0300 hc         1 G9W       0.042700
     33 H15          2.2930    -3.8390    -0.4730 hc         1 G9W       0.042700
     34 H16          1.0530    -3.4170     0.6840 hc         1 G9W       0.042700
     35 H17          4.1140    -2.6980    -0.1580 ha         1 G9W       0.128000
     36 H18          5.4420    -0.6350    -0.0220 ha         1 G9W       0.138000
     37 H19          4.2800     1.5520     0.0490 ha         1 G9W       0.156000
     38 H20         -0.0930     2.9180    -0.0310 hn         1 G9W       0.325500
@<TRIPOS>BOND
     1     1     2 1   
     2     1     7 2   
     3     1    14 1   
     4     2     3 1   
     5     2    38 1   
     6     3     4 2   
     7     3     5 1   
     8     5     6 ar  
     9     5    19 ar  
    10     6     7 1   
    11     6    15 ar  
    12     7     8 1   
    13     8     9 1   
    14     8    20 1   
    15     8    21 1   
    16     9    10 1   
    17    10    11 1   
    18    10    14 1   
    19    10    22 1   
    20    11    12 1   
    21    11    13 1   
    22    11    23 1   
    23    12    24 1   
    24    12    25 1   
    25    12    26 1   
    26    13    27 1   
    27    13    28 1   
    28    13    29 1   
    29    14    30 1   
    30    14    31 1   
    31    15    16 1   
    32    15    17 ar  
    33    16    32 1   
    34    16    33 1   
    35    16    34 1   
    36    17    18 ar  
    37    17    35 1   
    38    18    19 ar  
    39    18    36 1   
    40    19    37 1   
@<TRIPOS>SUBSTRUCTURE
     1 G9W         1 TEMP              0 ****  ****    0 ROOT
