@<TRIPOS>MOLECULE
G9W
   38    40     1     0     0
SMALL
No Charge or Current Charge


@<TRIPOS>ATOM
      1 C1          -0.4350     0.8970    -0.0110 cc         1 G9W       0.067400
      2 N2           0.3630     2.0170    -0.0220 ns         1 G9W      -0.380100
      3 C3           1.7230     2.0250     0.0370 c          1 G9W       0.570600
      4 O4           2.3390     3.0810     0.0710 o          1 G9W      -0.560000
      5 C5           2.3870     0.6780     0.0410 ca         1 G9W      -0.170600
      6 C6           1.6120    -0.5170     0.0070 ca         1 G9W       0.042200
      7 C7           0.1150    -0.3790     0.0340 cd         1 G9W      -0.189400
      8 C8          -0.8790    -1.5370     0.1630 c6         1 G9W       0.218800
      9 O9          -2.1860    -1.0990     0.5860 os         1 G9W      -0.449000
     10 C10         -2.7500    -0.0650    -0.2310 c6         1 G9W       0.176300
     11 C11         -4.2590     0.0890     0.1570 c3         1 G9W      -0.057700
     12 C12         -4.9720     1.2270    -0.6170 c3         1 G9W      -0.087600
     13 C13         -5.0530    -1.2320    -0.0090 c3         1 G9W      -0.087600
     14 C14         -1.9130     1.2120    -0.0160 c6         1 G9W      -0.081200
     15 C15          2.3180    -1.7660    -0.0620 ca         1 G9W      -0.090300
     16 C16          1.6590    -3.1380    -0.2140 c3         1 G9W      -0.046800
     17 C17          3.7290    -1.7790    -0.0300 ca         1 G9W      -0.081000
     18 C18          4.4630    -0.5940     0.0430 ca         1 G9W      -0.131000
     19 C19          3.7970     0.6300     0.0670 ca         1 G9W      -0.049000
     20 H2          -0.9850    -2.0590    -0.7980 h1         1 G9W       0.054200
     21 H3          -0.5350    -2.2550     0.9160 h1         1 G9W       0.054200
     22 H4          -2.6870    -0.3730    -1.2860 h1         1 G9W       0.041700
     23 H5          -4.3080     0.3540     1.2210 hc         1 G9W       0.060700
     24 H6          -4.9170     1.0560    -1.6990 hc         1 G9W       0.036700
     25 H7          -6.0300     1.2870    -0.3330 hc         1 G9W       0.036700
     26 H8          -4.5190     2.2010    -0.3980 hc         1 G9W       0.036700
     27 H9          -5.0330    -1.5690    -1.0520 hc         1 G9W       0.036700
     28 H10         -4.6330    -2.0270     0.6170 hc         1 G9W       0.036700
     29 H11         -6.1000    -1.0970     0.2870 hc         1 G9W       0.036700
     30 H12         -2.1980     1.6800     0.9360 hc         1 G9W       0.067200
     31 H13         -2.1510     1.9380    -0.8050 hc         1 G9W       0.067200
     32 H14          0.9150    -3.1460    -1.0170 hc         1 G9W       0.042700
     33 H15          2.3900    -3.9100    -0.4850 hc         1 G9W       0.042700
     34 H16          1.1980    -3.4720     0.7210 hc         1 G9W       0.042700
     35 H17          4.2700    -2.7220    -0.0720 ha         1 G9W       0.110000
     36 H18          5.5510    -0.6250     0.0620 ha         1 G9W       0.120000
     37 H19          4.3820     1.5480     0.1020 ha         1 G9W       0.138000
     38 H20         -0.0670     2.9330    -0.0390 hn         1 G9W       0.325500
@<TRIPOS>BOND
     1     1     2 1   
     2     1     7 2   
     3     1    14 1   
     4     2     3 1   
     5     2    38 1   
     6     3     4 2   
     7     3     5 1   
     8     5     6 ar  
     9     5    19 ar  
    10     6     7 1   
    11     6    15 ar  
    12     7     8 1   
    13     8     9 1   
    14     8    20 1   
    15     8    21 1   
    16     9    10 1   
    17    10    11 1   
    18    10    14 1   
    19    10    22 1   
    20    11    12 1   
    21    11    13 1   
    22    11    23 1   
    23    12    24 1   
    24    12    25 1   
    25    12    26 1   
    26    13    27 1   
    27    13    28 1   
    28    13    29 1   
    29    14    30 1   
    30    14    31 1   
    31    15    16 1   
    32    15    17 ar  
    33    16    32 1   
    34    16    33 1   
    35    16    34 1   
    36    17    18 ar  
    37    17    35 1   
    38    18    19 ar  
    39    18    36 1   
    40    19    37 1   
@<TRIPOS>SUBSTRUCTURE
     1 G9W         1 TEMP              0 ****  ****    0 ROOT
