@<TRIPOS>MOLECULE
G9X
   41    44     1     0     0
SMALL
bcc


@<TRIPOS>ATOM
      1 C10        -17.5640    66.9810   -41.4190 c3         1 G9X      -0.154700
      2 C13        -18.8240    66.8940   -42.2900 c3         1 G9X       0.007800
      3 C15        -18.6260    67.2810   -44.8100 cc         1 G9X      -0.104100
      4 C17        -17.8780    65.3230   -45.5540 ca         1 G9X      -0.042200
      5 C20        -17.1300    63.0900   -45.6570 ca         1 G9X       0.049400
      6 C21        -17.2870    62.9520   -44.2720 ca         1 G9X      -0.154000
      7 C22        -17.7420    64.0170   -43.5200 ca         1 G9X      -0.070000
      8 C01        -16.8430    65.8640   -36.6750 ca         1 G9X      -0.143000
      9 C02        -15.4740    65.7020   -36.8420 ca         1 G9X      -0.103000
     10 C03        -14.8740    66.0850   -38.0300 ca         1 G9X      -0.146000
     11 C04        -15.6100    66.6110   -39.0920 ca         1 G9X      -0.034300
     12 C05        -16.9940    66.7650   -38.9180 ca         1 G9X      -0.167600
     13 C06        -17.5890    66.4050   -37.7050 ca         1 G9X      -0.081000
     14 C07        -14.8590    67.0400   -40.3280 c3         1 G9X      -0.037100
     15 C08        -15.4020    68.2970   -41.0060 c3         1 G9X      -0.076400
     16 C09        -16.5700    68.0230   -41.9490 c3         1 G9X      -0.064400
     17 C11        -17.9060    67.2880   -39.9790 c          1 G9X       0.588700
     18 O12        -18.9110    67.8980   -39.6780 o          1 G9X      -0.526100
     19 C14        -18.5240    66.4970   -43.6960 cd         1 G9X      -0.136400
     20 N16        -18.2410    66.5810   -45.9220 na         1 G9X      -0.171400
     21 C18        -18.0430    65.2270   -44.1530 ca         1 G9X      -0.098800
     22 C19        -17.4190    64.2590   -46.3280 ca         1 G9X      -0.142000
     23 H101       -17.0630    66.0070   -41.4330 hc         1 G9X       0.068700
     24 H132       -19.3360    67.8580   -42.2890 hc         1 G9X       0.057700
     25 H131       -19.5170    66.1750   -41.8420 hc         1 G9X       0.057700
     26 H151       -18.9500    68.3070   -44.8940 h4         1 G9X       0.165000
     27 H211       -17.0500    62.0100   -43.7950 ha         1 G9X       0.146000
     28 H221       -17.8640    63.9030   -42.4500 ha         1 G9X       0.138000
     29 H011       -17.3230    65.5750   -35.7490 ha         1 G9X       0.136000
     30 H021       -14.8720    65.2880   -36.0440 ha         1 G9X       0.132000
     31 H031       -13.8010    65.9810   -38.1390 ha         1 G9X       0.130000
     32 H061       -18.6570    66.5340   -37.5810 ha         1 G9X       0.147000
     33 H071       -14.8260    66.2150   -41.0500 hc         1 G9X       0.052200
     34 H072       -13.8210    67.2080   -40.0380 hc         1 G9X       0.052200
     35 H081       -14.5990    68.7690   -41.5750 hc         1 G9X       0.047200
     36 H082       -15.6880    69.0220   -40.2380 hc         1 G9X       0.047200
     37 H091       -16.1860    67.6570   -42.9030 hc         1 G9X       0.050200
     38 H092       -17.1020    68.9540   -42.1640 hc         1 G9X       0.050200
     39 H161       -18.2380    66.9410   -46.8610 hn         1 G9X       0.302700
     40 H191       -17.2950    64.3470   -47.4000 ha         1 G9X       0.147000
     41 CL2        -16.5430    61.7270   -46.5640 cl         1 G9X      -0.121400
@<TRIPOS>BOND
     1     1     2 1   
     2     1    16 1   
     3     1    17 1   
     4     1    23 1   
     5     2    19 1   
     6     2    24 1   
     7     2    25 1   
     8     3    19 2   
     9     3    20 1   
    10     3    26 1   
    11     4    20 1   
    12     4    21 ar  
    13     4    22 ar  
    14     5     6 ar  
    15     5    22 ar  
    16     5    41 1   
    17     6     7 ar  
    18     6    27 1   
    19     7    21 ar  
    20     7    28 1   
    21     8     9 ar  
    22     8    13 ar  
    23     8    29 1   
    24     9    10 ar  
    25     9    30 1   
    26    10    11 ar  
    27    10    31 1   
    28    11    12 ar  
    29    11    14 1   
    30    12    13 ar  
    31    12    17 1   
    32    13    32 1   
    33    14    15 1   
    34    14    33 1   
    35    14    34 1   
    36    15    16 1   
    37    15    35 1   
    38    15    36 1   
    39    16    37 1   
    40    16    38 1   
    41    17    18 2   
    42    19    21 1   
    43    20    39 1   
    44    22    40 1   
@<TRIPOS>SUBSTRUCTURE
     1 G9X         1 TEMP              0 ****  ****    0 ROOT
