@<TRIPOS>MOLECULE
G9X
   41    44     1     0     0
SMALL
No Charge or Current Charge


@<TRIPOS>ATOM
      1 C10        -17.5630    67.0870   -41.4590 c3         1 G9X      -0.154700
      2 C13        -18.8230    66.9300   -42.3480 c3         1 G9X       0.007800
      3 C15        -18.5390    67.3460   -44.8740 cc         1 G9X      -0.154100
      4 C17        -17.8620    65.2550   -45.5120 ca         1 G9X      -0.042200
      5 C20        -17.2230    62.9360   -45.5360 ca         1 G9X       0.141000
      6 C21        -17.4380    62.8720   -44.1380 ca         1 G9X      -0.136000
      7 C22        -17.8680    64.0160   -43.4300 ca         1 G9X      -0.052000
      8 C01        -16.8230    65.5880   -36.7820 ca         1 G9X      -0.125000
      9 C02        -15.4340    65.5030   -36.9370 ca         1 G9X      -0.085000
     10 C03        -14.8230    66.0390   -38.0810 ca         1 G9X      -0.128000
     11 C04        -15.5840    66.6640   -39.0910 ca         1 G9X      -0.034300
     12 C05        -17.0010    66.7260   -38.9420 ca         1 G9X      -0.167600
     13 C06        -17.6010    66.1970   -37.7780 ca         1 G9X      -0.063000
     14 C07        -14.8100    67.2640   -40.2800 c3         1 G9X      -0.037100
     15 C08        -15.4540    68.4990   -40.9560 c3         1 G9X      -0.076400
     16 C09        -16.5750    68.1620   -41.9680 c3         1 G9X      -0.064400
     17 C11        -17.9010    67.3410   -39.9820 c          1 G9X       0.588700
     18 O12        -18.8330    68.0680   -39.6540 o          1 G9X      -0.526100
     19 C14        -18.4920    66.5150   -43.7600 cd         1 G9X      -0.136400
     20 N16        -18.1390    66.5350   -45.9580 na         1 G9X      -0.221700
     21 C18        -18.0680    65.1940   -44.1630 ca         1 G9X      -0.098800
     22 C19        -17.4350    64.1390   -46.2420 ca         1 G9X      -0.124000
     23 H101       -17.0040    66.1450   -41.4850 hc         1 G9X       0.068700
     24 H132       -19.3840    67.8740   -42.3580 hc         1 G9X       0.057700
     25 H131       -19.4900    66.1840   -41.8970 hc         1 G9X       0.057700
     26 H151       -18.8050    68.3950   -44.9760 h4         1 G9X       0.215000
     27 H211       -17.2710    61.9380   -43.6080 ha         1 G9X       0.128000
     28 H221       -18.0390    63.9810   -42.3570 ha         1 G9X       0.120000
     29 H011       -17.2990    65.1780   -35.8940 ha         1 G9X       0.118000
     30 H021       -14.8280    65.0280   -36.1680 ha         1 G9X       0.114000
     31 H031       -13.7410    65.9740   -38.1780 ha         1 G9X       0.112000
     32 H061       -18.6810    66.2480   -37.6500 ha         1 G9X       0.129000
     33 H071       -14.6230    66.4900   -41.0350 hc         1 G9X       0.052200
     34 H072       -13.8170    67.5740   -39.9310 hc         1 G9X       0.052200
     35 H081       -14.6740    69.0560   -41.4900 hc         1 G9X       0.047200
     36 H082       -15.8340    69.1800   -40.1830 hc         1 G9X       0.047200
     37 H091       -16.1200    67.8150   -42.9050 hc         1 G9X       0.050200
     38 H092       -17.1200    69.0850   -42.2070 hc         1 G9X       0.050200
     39 H161       -18.0630    66.8410   -46.9240 hn         1 G9X       0.353000
     40 H191       -17.2720    64.1930   -47.3150 ha         1 G9X       0.129000
     41 Cl2        -16.6860    61.5010   -46.4000 cl         1 G9X      -0.213000
@<TRIPOS>BOND
     1     1     2 1   
     2     1    16 1   
     3     1    17 1   
     4     1    23 1   
     5     2    19 1   
     6     2    24 1   
     7     2    25 1   
     8     3    19 2   
     9     3    20 1   
    10     3    26 1   
    11     4    20 1   
    12     4    21 ar  
    13     4    22 ar  
    14     5     6 ar  
    15     5    22 ar  
    16     5    41 1   
    17     6     7 ar  
    18     6    27 1   
    19     7    21 ar  
    20     7    28 1   
    21     8     9 ar  
    22     8    13 ar  
    23     8    29 1   
    24     9    10 ar  
    25     9    30 1   
    26    10    11 ar  
    27    10    31 1   
    28    11    12 ar  
    29    11    14 1   
    30    12    13 ar  
    31    12    17 1   
    32    13    32 1   
    33    14    15 1   
    34    14    33 1   
    35    14    34 1   
    36    15    16 1   
    37    15    35 1   
    38    15    36 1   
    39    16    37 1   
    40    16    38 1   
    41    17    18 2   
    42    19    21 1   
    43    20    39 1   
    44    22    40 1   
@<TRIPOS>SUBSTRUCTURE
     1 G9X         1 TEMP              0 ****  ****    0 ROOT
