@<TRIPOS>MOLECULE
G9Y
   51    54     1     0     0
SMALL
abcg2


@<TRIPOS>ATOM
      1 C4           3.7120     1.6010     0.8740 c3         1 G9Y       0.094000
      2 C14          3.9920    -0.5970    -0.1510 c          1 G9Y       0.588600
      3 C6           1.8670     0.0210     0.8460 cc         1 G9Y      -0.056400
      4 C7           1.2350    -1.1430     0.5510 cd         1 G9Y      -0.065400
      5 C8           2.0120    -2.1280    -0.1380 cd         1 G9Y      -0.035800
      6 C9           1.7550    -3.4220    -0.6570 cd         1 G9Y      -0.189000
      7 C10          2.9210    -3.8450    -1.2520 cc         1 G9Y      -0.153000
      8 C13          3.3330    -1.8270    -0.4510 cc         1 G9Y      -0.256600
      9 C3           3.5560     2.6050    -0.2670 c3         1 G9Y      -0.064200
     10 C29         -3.2700     0.5800    -1.3960 c6         1 G9Y       0.060500
     11 C19         -2.8280    -1.7110     1.7460 ca         1 G9Y      -0.070000
     12 C18         -1.9070    -2.7390     1.8890 ca         1 G9Y      -0.117000
     13 N5           3.1750     0.2880     0.5290 n          1 G9Y      -0.277000
     14 C2           4.0230     3.9640     0.1490 c2         1 G9Y      -0.226200
     15 O23         -3.9270     1.0320     2.1220 o          1 G9Y      -0.594100
     16 C16         -0.1700    -1.3530     0.9370 ca         1 G9Y      -0.024800
     17 N24         -3.6280     1.1740    -0.1180 n          1 G9Y      -0.410800
     18 C28         -4.5280     0.3480    -2.2180 c6         1 G9Y       0.132100
     19 C25         -4.4490     2.3650    -0.2610 c6         1 G9Y       0.060500
     20 C20         -2.4310    -0.5100     1.1690 ca         1 G9Y      -0.142600
     21 C17         -0.5900    -2.5620     1.4950 ca         1 G9Y      -0.084000
     22 N11          3.8640    -2.8830    -1.1250 na         1 G9Y      -0.074000
     23 C26         -5.6610     2.0630    -1.1250 c6         1 G9Y       0.132100
     24 C22         -3.4040     0.6250     1.0920 c          1 G9Y       0.618700
     25 O27         -5.2770     1.5310    -2.3750 os         1 G9Y      -0.445000
     26 C21         -1.1120    -0.3390     0.7650 ca         1 G9Y      -0.088000
     27 H1           4.7610     1.4920     1.1440 h1         1 G9Y       0.065700
     28 H2           3.1850     1.9500     1.7620 h1         1 G9Y       0.065700
     29 H3           1.3650     0.8100     1.3880 h4         1 G9Y       0.203000
     30 H4           0.8340    -3.9820    -0.6160 ha         1 G9Y       0.141000
     31 H5           3.1390    -4.7700    -1.7600 h4         1 G9Y       0.149000
     32 H6           4.1120     2.2620    -1.1410 hc         1 G9Y       0.057200
     33 H7           2.4990     2.6520    -0.5490 hc         1 G9Y       0.057200
     34 H9          -2.7620    -0.3710    -1.2530 h1         1 G9Y       0.066200
     35 H10         -3.8520    -1.8510     2.0670 ha         1 G9Y       0.126000
     36 H11         -2.2150    -3.6800     2.3240 ha         1 G9Y       0.118000
     37 H15          3.4650     4.4340     0.9550 ha         1 G9Y       0.165000
     38 H16         -4.2550    -0.0030    -3.2140 h1         1 G9Y       0.054700
     39 H17         -5.1340    -0.4330    -1.7370 h1         1 G9Y       0.054700
     40 H18         -4.7650     2.7200     0.7170 h1         1 G9Y       0.066200
     41 H19         -3.8460     3.1500    -0.7280 h1         1 G9Y       0.066200
     42 H20          0.1230    -3.3620     1.6450 ha         1 G9Y       0.123000
     43 H12          4.8040    -2.9350    -1.4810 hn         1 G9Y       0.366000
     44 H21         -6.3240     1.3650    -0.5960 h1         1 G9Y       0.054700
     45 H22         -6.2180     2.9810    -1.3160 h1         1 G9Y       0.054700
     46 H23         -0.8080     0.5940     0.3050 ha         1 G9Y       0.117000
     47 O15          5.1530    -0.3240    -0.4500 o          1 G9Y      -0.573000
     48 C1           5.0570     4.6050    -0.3820 c2         1 G9Y      -0.303000
     49 H8          -2.5880     1.2480    -1.9290 h1         1 G9Y       0.066200
     50 H13          5.6440     4.1750    -1.1860 ha         1 G9Y       0.165000
     51 H14          5.3530     5.5870    -0.0360 ha         1 G9Y       0.165000
@<TRIPOS>BOND
     1     1     9 1   
     2     1    13 1   
     3     1    27 1   
     4     1    28 1   
     5     2     8 1   
     6     2    13 1   
     7     2    47 2   
     8     3     4 2   
     9     3    13 1   
    10     3    29 1   
    11     4     5 1   
    12     4    16 1   
    13     5     6 1   
    14     5     8 2   
    15     6     7 2   
    16     6    30 1   
    17     7    22 1   
    18     7    31 1   
    19     8    22 1   
    20     9    14 1   
    21     9    32 1   
    22     9    33 1   
    23    10    17 1   
    24    10    18 1   
    25    10    34 1   
    26    10    49 1   
    27    11    12 ar  
    28    11    20 ar  
    29    11    35 1   
    30    12    21 ar  
    31    12    36 1   
    32    14    37 1   
    33    14    48 2   
    34    15    24 2   
    35    16    21 ar  
    36    16    26 ar  
    37    17    19 1   
    38    17    24 1   
    39    18    25 1   
    40    18    38 1   
    41    18    39 1   
    42    19    23 1   
    43    19    40 1   
    44    19    41 1   
    45    20    24 1   
    46    20    26 ar  
    47    21    42 1   
    48    22    43 1   
    49    23    25 1   
    50    23    44 1   
    51    23    45 1   
    52    26    46 1   
    53    48    50 1   
    54    48    51 1   
@<TRIPOS>SUBSTRUCTURE
     1 G9Y         1 TEMP              0 ****  ****    0 ROOT
