@<TRIPOS>MOLECULE
G9Y
   51    54     1     0     0
SMALL
No Charge or Current Charge


@<TRIPOS>ATOM
      1 C4           3.5240     1.6930     0.6850 c3         1 G9Y       0.094000
      2 C14          3.9820    -0.6390    -0.0590 c          1 G9Y       0.588600
      3 C6           1.7410    -0.0510     0.7830 cc         1 G9Y      -0.056400
      4 C7           1.2230    -1.3360     0.6610 cd         1 G9Y      -0.065400
      5 C8           2.1210    -2.3010     0.0610 cd         1 G9Y      -0.035800
      6 C9           1.8700    -3.6330    -0.3380 cd         1 G9Y      -0.189000
      7 C10          3.0190    -4.1570    -0.8680 cc         1 G9Y      -0.153000
      8 C13          3.4070    -1.9770    -0.2580 cc         1 G9Y      -0.256600
      9 C3           3.1180     2.6460    -0.4580 c3         1 G9Y      -0.064200
     10 C29         -2.8640     0.9360    -1.2880 c6         1 G9Y       0.060500
     11 C19         -2.8960    -2.0970     1.6990 ca         1 G9Y      -0.070000
     12 C18         -1.9320    -3.1040     1.8550 ca         1 G9Y      -0.117000
     13 N5           3.0640     0.3000     0.4660 n          1 G9Y      -0.277000
     14 C2           3.5740     4.0700    -0.2110 c2         1 G9Y      -0.226200
     15 O23         -4.5290     0.2940     1.8330 o          1 G9Y      -0.594100
     16 C16         -0.1960    -1.6090     0.9990 ca         1 G9Y      -0.024800
     17 N24         -3.4080     1.2520     0.0710 n          1 G9Y      -0.410800
     18 C28         -3.9640     1.0000    -2.3820 c6         1 G9Y       0.132100
     19 C25         -4.2350     2.4980     0.0800 c6         1 G9Y       0.060500
     20 C20         -2.5310    -0.8350     1.1890 ca         1 G9Y      -0.142600
     21 C17         -0.5940    -2.8630     1.5070 ca         1 G9Y      -0.084000
     22 N11          3.9720    -3.1340    -0.8050 na         1 G9Y      -0.074000
     23 C26         -5.3000     2.4940    -1.0460 c6         1 G9Y       0.132100
     24 C22         -3.5860     0.2460     1.0520 c          1 G9Y       0.618700
     25 O27         -4.6630     2.2620    -2.3220 os         1 G9Y      -0.445000
     26 C21         -1.1730    -0.5950     0.8710 ca         1 G9Y      -0.088000
     27 H1           4.6140     1.7200     0.8090 h1         1 G9Y       0.065700
     28 H2           3.0920     2.0600     1.6260 h1         1 G9Y       0.065700
     29 H3           1.1900     0.7940     1.1800 h4         1 G9Y       0.203000
     30 H4           0.9280    -4.1650    -0.2740 ha         1 G9Y       0.141000
     31 H5           3.2320    -5.1350    -1.2850 h4         1 G9Y       0.149000
     32 H6           3.5410     2.2660    -1.3960 hc         1 G9Y       0.057200
     33 H7           2.0280     2.6210    -0.5780 hc         1 G9Y       0.057200
     34 H9          -2.4220    -0.0680    -1.3140 h1         1 G9Y       0.066200
     35 H10         -3.9290    -2.2990     1.9740 ha         1 G9Y       0.126000
     36 H11         -2.2210    -4.0720     2.2600 ha         1 G9Y       0.118000
     37 H15          3.0990     4.5560     0.6460 ha         1 G9Y       0.165000
     38 H16         -3.5110     0.8850    -3.3770 h1         1 G9Y       0.054700
     39 H17         -4.6840     0.1810    -2.2380 h1         1 G9Y       0.054700
     40 H18         -4.7310     2.6330     1.0510 h1         1 G9Y       0.066200
     41 H19         -3.5720     3.3630    -0.0610 h1         1 G9Y       0.066200
     42 H20          0.1390    -3.6420     1.6910 ha         1 G9Y       0.123000
     43 H12          4.9310    -3.2110    -1.1350 hn         1 G9Y       0.366000
     44 H21         -6.0450     1.7070    -0.8610 h1         1 G9Y       0.054700
     45 H22         -5.8220     3.4610    -1.0740 h1         1 G9Y       0.054700
     46 H23         -0.8820     0.3860     0.5070 ha         1 G9Y       0.117000
     47 O15          5.1430    -0.3710    -0.3450 o          1 G9Y      -0.573000
     48 C1           4.4740     4.7330    -0.9520 c2         1 G9Y      -0.303000
     49 H8          -2.0670     1.6530    -1.5320 h1         1 G9Y       0.066200
     50 H13          4.9620     4.2740    -1.8140 ha         1 G9Y       0.165000
     51 H14          4.7570     5.7610    -0.7220 ha         1 G9Y       0.165000
@<TRIPOS>BOND
     1     1     9 1   
     2     1    13 1   
     3     1    27 1   
     4     1    28 1   
     5     2     8 1   
     6     2    13 1   
     7     2    47 2   
     8     3     4 2   
     9     3    13 1   
    10     3    29 1   
    11     4     5 1   
    12     4    16 1   
    13     5     6 1   
    14     5     8 2   
    15     6     7 2   
    16     6    30 1   
    17     7    22 1   
    18     7    31 1   
    19     8    22 1   
    20     9    14 1   
    21     9    32 1   
    22     9    33 1   
    23    10    17 1   
    24    10    18 1   
    25    10    34 1   
    26    10    49 1   
    27    11    12 ar  
    28    11    20 ar  
    29    11    35 1   
    30    12    21 ar  
    31    12    36 1   
    32    14    37 1   
    33    14    48 2   
    34    15    24 2   
    35    16    21 ar  
    36    16    26 ar  
    37    17    19 1   
    38    17    24 1   
    39    18    25 1   
    40    18    38 1   
    41    18    39 1   
    42    19    23 1   
    43    19    40 1   
    44    19    41 1   
    45    20    24 1   
    46    20    26 ar  
    47    21    42 1   
    48    22    43 1   
    49    23    25 1   
    50    23    44 1   
    51    23    45 1   
    52    26    46 1   
    53    48    50 1   
    54    48    51 1   
@<TRIPOS>SUBSTRUCTURE
     1 G9Y         1 TEMP              0 ****  ****    0 ROOT
