@<TRIPOS>MOLECULE
G9Z
   36    36     1     0     0
SMALL
No Charge or Current Charge


@<TRIPOS>ATOM
      1 OAM         -2.7430    -2.6850     1.3360 o          1 G9Z      -0.626000
      2 CAB         -3.0790    -1.8080     0.5540 c          1 G9Z       0.556200
      3 CAC         -4.3450    -1.7190    -0.1650 ce         1 G9Z      -0.344200
      4 CB          -4.4220    -0.6190    -0.9390 c2         1 G9Z      -0.133200
      5 CA          -3.0940     0.1540    -0.8120 c5         1 G9Z      -0.050100
      6 C           -3.2550     1.6570    -0.4080 c          1 G9Z       0.729000
      7 O           -4.3610     2.1110    -0.1480 o          1 G9Z      -0.701000
      8 N           -2.3470    -0.6840     0.1850 n          1 G9Z      -0.361800
      9 CAG         -1.0230    -0.3730     0.7860 c3         1 G9Z       0.093000
     10 CAH          0.1450    -0.2180    -0.2340 c3         1 G9Z       0.111300
     11 OAP         -0.0380     0.9750    -1.0290 oh         1 G9Z      -0.709000
     12 CAI          1.5510    -0.1710     0.4560 c3         1 G9Z       0.115300
     13 OAQ          1.7420    -1.3490     1.2780 oh         1 G9Z      -0.710000
     14 CAJ          2.7380    -0.0960    -0.5590 c3         1 G9Z       0.108300
     15 OAR          2.8580    -1.3970    -1.1650 oh         1 G9Z      -0.709000
     16 CAK          4.0950     0.3110     0.1000 c3         1 G9Z       0.137300
     17 OAT          3.9980     1.6040     0.7180 oh         1 G9Z      -0.689000
     18 CAL          5.2670     0.3870    -0.9170 c3         1 G9Z       0.123600
     19 OAS          6.4160     0.9890    -0.2880 oh         1 G9Z      -0.710000
     20 OXT         -2.2400     2.3370    -0.3490 o          1 G9Z      -0.701000
     21 H1          -5.1180    -2.4750    -0.0410 ha         1 G9Z       0.189000
     22 H2          -5.2760    -0.3320    -1.5580 ha         1 G9Z       0.194000
     23 H3          -2.5690     0.1460    -1.7750 h1         1 G9Z       0.072700
     24 H4          -1.1090     0.5440     1.3830 h1         1 G9Z       0.073200
     25 H5          -0.7670    -1.1750     1.4890 h1         1 G9Z       0.073200
     26 H6           0.1260    -1.1040    -0.8850 h1         1 G9Z       0.086700
     27 H7          -0.8580     1.4440    -0.7010 ho         1 G9Z       0.495000
     28 H8           1.5700     0.7350     1.0800 h1         1 G9Z       0.082700
     29 H9           2.0880    -1.0500     2.1520 ho         1 G9Z       0.503000
     30 H10          2.5060     0.6590    -1.3230 h1         1 G9Z       0.078700
     31 H11          2.5050    -2.0000    -0.4640 ho         1 G9Z       0.496000
     32 H12          4.3580    -0.4460     0.8530 h1         1 G9Z       0.089700
     33 H13          4.9300     1.9340     0.6810 ho         1 G9Z       0.492000
     34 H14          5.5090    -0.6260    -1.2670 h1         1 G9Z       0.025700
     35 H15          4.9560     0.9780    -1.7890 h1         1 G9Z       0.025700
     36 H16          7.1630     0.9290    -0.9300 ho         1 G9Z       0.495000
@<TRIPOS>BOND
     1     1     2 2   
     2     2     3 1   
     3     2     8 1   
     4     3     4 2   
     5     3    21 1   
     6     4     5 1   
     7     4    22 1   
     8     5     6 1   
     9     5     8 1   
    10     5    23 1   
    11     6     7 1   
    12     6    20 1   
    13     8     9 1   
    14     9    10 1   
    15     9    24 1   
    16     9    25 1   
    17    10    11 1   
    18    10    12 1   
    19    10    26 1   
    20    11    27 1   
    21    12    13 1   
    22    12    14 1   
    23    12    28 1   
    24    13    29 1   
    25    14    15 1   
    26    14    16 1   
    27    14    30 1   
    28    15    31 1   
    29    16    17 1   
    30    16    18 1   
    31    16    32 1   
    32    17    33 1   
    33    18    19 1   
    34    18    34 1   
    35    18    35 1   
    36    19    36 1   
@<TRIPOS>SUBSTRUCTURE
     1 G9Z         1 TEMP              0 ****  ****    0 ROOT
