@<TRIPOS>MOLECULE
G9Z
   36    36     1     0     0
SMALL
bcc


@<TRIPOS>ATOM
      1 OAM         -2.1600    -2.5520     1.0130 o          1 G9Z      -0.701500
      2 CAB         -2.7070    -1.6720     0.3600 c          1 G9Z       0.698700
      3 CAC         -3.9890    -1.7470    -0.3720 ce         1 G9Z      -0.294200
      4 CB          -4.2150    -0.5710    -0.9560 c2         1 G9Z      -0.083200
      5 CA          -3.1210     0.3880    -0.6280 c5         1 G9Z      -0.050100
      6 C           -3.7360     1.6290     0.1020 c          1 G9Z       0.939600
      7 O           -3.5330     1.7320     1.3190 o          1 G9Z      -0.806300
      8 N           -2.2340    -0.4190     0.1640 n          1 G9Z      -0.428800
      9 CAG         -0.9790     0.0390     0.6940 c3         1 G9Z       0.093000
     10 CAH          0.2000    -0.2840    -0.2240 c3         1 G9Z       0.088100
     11 OAP          0.0760     0.3740    -1.4640 oh         1 G9Z      -0.586800
     12 CAI          1.5380     0.0340     0.4640 c3         1 G9Z       0.092100
     13 OAQ          1.6850    -0.7310     1.6440 oh         1 G9Z      -0.587800
     14 CAJ          2.7310    -0.1470    -0.4810 c3         1 G9Z       0.085100
     15 OAR          2.7660    -1.4490    -1.0320 oh         1 G9Z      -0.586800
     16 CAK          4.0700     0.2020     0.1910 c3         1 G9Z       0.114100
     17 OAT          4.0110     1.4450     0.8540 oh         1 G9Z      -0.566800
     18 CAL          5.2050     0.1640    -0.8210 c3         1 G9Z       0.100400
     19 OAS          6.4250     0.3670    -0.1470 oh         1 G9Z      -0.587800
     20 OXT         -4.3940     2.3700    -0.6450 o          1 G9Z      -0.806300
     21 H1          -4.6070    -2.6310    -0.4020 ha         1 G9Z       0.139000
     22 H2          -5.0610    -0.2940    -1.5660 ha         1 G9Z       0.144000
     23 H3          -2.6270     0.7380    -1.5410 h1         1 G9Z       0.072700
     24 H4          -1.0420     1.1170     0.8570 h1         1 G9Z       0.073200
     25 H5          -0.8250    -0.4130     1.6740 h1         1 G9Z       0.073200
     26 H6           0.1760    -1.3540    -0.4580 h1         1 G9Z       0.086700
     27 H7           0.0550     1.3250    -1.3070 ho         1 G9Z       0.396000
     28 H8           1.5190     1.0800     0.7860 h1         1 G9Z       0.082700
     29 H9           1.4780    -1.6520     1.4530 ho         1 G9Z       0.404000
     30 H10          2.5920     0.5310    -1.3300 h1         1 G9Z       0.078700
     31 H11          3.0530    -2.0710    -0.3540 ho         1 G9Z       0.397000
     32 H12          4.2720    -0.5390     0.9730 h1         1 G9Z       0.089700
     33 H13          3.9020     2.1400     0.1950 ho         1 G9Z       0.393000
     34 H14          5.1900    -0.7970    -1.3460 h1         1 G9Z       0.025700
     35 H15          5.0260     0.9420    -1.5790 h1         1 G9Z       0.025700
     36 H16          7.1360     0.2720    -0.7870 ho         1 G9Z       0.396000
@<TRIPOS>BOND
     1     1     2 2   
     2     2     3 1   
     3     2     8 1   
     4     3     4 2   
     5     3    21 1   
     6     4     5 1   
     7     4    22 1   
     8     5     6 1   
     9     5     8 1   
    10     5    23 1   
    11     6     7 1   
    12     6    20 1   
    13     8     9 1   
    14     9    10 1   
    15     9    24 1   
    16     9    25 1   
    17    10    11 1   
    18    10    12 1   
    19    10    26 1   
    20    11    27 1   
    21    12    13 1   
    22    12    14 1   
    23    12    28 1   
    24    13    29 1   
    25    14    15 1   
    26    14    16 1   
    27    14    30 1   
    28    15    31 1   
    29    16    17 1   
    30    16    18 1   
    31    16    32 1   
    32    17    33 1   
    33    18    19 1   
    34    18    34 1   
    35    18    35 1   
    36    19    36 1   
@<TRIPOS>SUBSTRUCTURE
     1 G9Z         1 TEMP              0 ****  ****    0 ROOT
