@<TRIPOS>MOLECULE
GA0
   51    53     1     0     0
SMALL
abcg2


@<TRIPOS>ATOM
      1 N1           0.9180    -3.9960     6.8080 n8         1 GA0      -0.979200
      2 CA1         -0.2750    -3.7230     6.0480 c3         1 GA0       0.073800
      3 C1          -0.1840    -3.9940     4.5500 c          1 GA0       0.559100
      4 O1           0.8390    -4.3850     4.0090 o          1 GA0      -0.615100
      5 N2          -1.3190    -3.7800     3.8620 ns         1 GA0      -0.490900
      6 CA2         -1.3620    -3.9020     2.4280 c3         1 GA0       0.047700
      7 CB2         -2.7860    -3.6630     1.9360 c3         1 GA0      -0.107100
      8 C2          -0.4300    -2.8730     1.7860 c          1 GA0       0.602100
      9 O2          -0.2580    -1.7740     2.2930 o          1 GA0      -0.604100
     10 N3           0.1460    -3.2100     0.6220 n          1 GA0      -0.393800
     11 CD3         -0.0220    -4.4560    -0.1220 c5         1 GA0       0.111000
     12 CA3          0.9550    -2.2370    -0.0770 c5         1 GA0       0.028700
     13 CB3          1.5140    -3.0280    -1.2700 c5         1 GA0      -0.083400
     14 CG3          0.4540    -4.0950    -1.5230 c5         1 GA0      -0.095400
     15 C3           0.0900    -1.0710    -0.5470 c          1 GA0       0.606100
     16 O3          -1.0700    -1.2230    -0.8720 o          1 GA0      -0.576100
     17 NN           0.7680     0.1020    -0.6150 ns         1 GA0      -0.142000
     18 C4           0.3240     1.3540    -1.0520 ca         1 GA0      -0.010000
     19 C5           1.0720     2.4540    -0.7030 ca         1 GA0      -0.167000
     20 C6           0.7120     3.7500    -1.1270 ca         1 GA0      -0.007000
     21 C7          -0.4460     3.9200    -1.9280 ca         1 GA0      -0.058000
     22 C8          -0.8110     5.2190    -2.3510 ca         1 GA0      -0.088000
     23 C9          -0.0580     6.3050    -1.9940 ca         1 GA0      -0.117000
     24 C10          1.0950     6.1360    -1.1970 ca         1 GA0      -0.101000
     25 C11          1.4720     4.8910    -0.7730 ca         1 GA0      -0.107000
     26 C12         -1.1920     2.7730    -2.2770 ca         1 GA0      -0.078000
     27 C13         -0.8290     1.5230    -1.8600 ca         1 GA0      -0.118000
     28 HN11         1.1810    -4.9670     6.7010 hn         1 GA0       0.408500
     29 HN12         1.6910    -3.4580     6.4380 hn         1 GA0       0.408500
     30 HA11        -0.5600    -2.6750     6.1840 h1         1 GA0       0.069200
     31 HA12        -1.1070    -4.3080     6.4520 h1         1 GA0       0.069200
     32 HN2         -2.1090    -3.3650     4.3310 hn         1 GA0       0.322500
     33 HA2         -1.0540    -4.9130     2.1530 h1         1 GA0       0.073700
     34 HB21        -2.8550    -3.7720     0.8550 hc         1 GA0       0.053367
     35 HB22        -3.4670    -4.3840     2.3880 hc         1 GA0       0.053367
     36 HB23        -3.1250    -2.6590     2.1940 hc         1 GA0       0.053367
     37 HD31        -1.0590    -4.7910    -0.1210 h1         1 GA0       0.050700
     38 HD32         0.5910    -5.2480     0.3140 h1         1 GA0       0.050700
     39 HA3          1.7650    -1.8720     0.5600 h1         1 GA0       0.079700
     40 HB31         2.4590    -3.4870    -0.9770 hc         1 GA0       0.060700
     41 HB32         1.7110    -2.3980    -2.1380 hc         1 GA0       0.060700
     42 HG31        -0.3710    -3.6870    -2.1070 hc         1 GA0       0.063200
     43 HG32         0.8450    -4.9600    -2.0550 hc         1 GA0       0.063200
     44 HNN          1.6950     0.0990    -0.2180 hn         1 GA0       0.152000
     45 H5           1.9570     2.3340    -0.0860 ha         1 GA0       0.112000
     46 H8          -1.6970     5.3430    -2.9620 ha         1 GA0       0.112000
     47 H9          -0.3430     7.2960    -2.3200 ha         1 GA0       0.112000
     48 H10          1.6830     7.0020    -0.9210 ha         1 GA0       0.111000
     49 H11          2.3550     4.7660    -0.1590 ha         1 GA0       0.112000
     50 H12         -2.0720     2.8880    -2.8970 ha         1 GA0       0.115000
     51 H13         -1.4220     0.6720    -2.1530 ha         1 GA0       0.143000
@<TRIPOS>BOND
     1     1     2 1   
     2     1    28 1   
     3     1    29 1   
     4     2     3 1   
     5     2    30 1   
     6     2    31 1   
     7     3     4 2   
     8     3     5 1   
     9     5     6 1   
    10     5    32 1   
    11     6     7 1   
    12     6     8 1   
    13     6    33 1   
    14     7    34 1   
    15     7    35 1   
    16     7    36 1   
    17     8     9 2   
    18     8    10 1   
    19    10    11 1   
    20    10    12 1   
    21    11    14 1   
    22    11    37 1   
    23    11    38 1   
    24    12    13 1   
    25    12    15 1   
    26    12    39 1   
    27    13    14 1   
    28    13    40 1   
    29    13    41 1   
    30    14    42 1   
    31    14    43 1   
    32    15    16 2   
    33    15    17 1   
    34    17    18 1   
    35    17    44 1   
    36    18    19 ar  
    37    18    27 ar  
    38    19    20 ar  
    39    19    45 1   
    40    20    21 ar  
    41    20    25 ar  
    42    21    22 ar  
    43    21    26 ar  
    44    22    23 ar  
    45    22    46 1   
    46    23    24 ar  
    47    23    47 1   
    48    24    25 ar  
    49    24    48 1   
    50    25    49 1   
    51    26    27 ar  
    52    26    50 1   
    53    27    51 1   
@<TRIPOS>SUBSTRUCTURE
     1 GA0         1 TEMP              0 ****  ****    0 ROOT
