@<TRIPOS>MOLECULE
GA0
   51    53     1     0     0
SMALL
No Charge or Current Charge


@<TRIPOS>ATOM
      1 N1          -0.9260    -5.7690     7.5940 n8         1 GA0      -0.979200
      2 CA1         -0.7650    -4.6460     6.6010 c3         1 GA0       0.073800
      3 C1          -0.7910    -5.0280     5.0840 c          1 GA0       0.559100
      4 O1          -0.9350    -6.1790     4.6870 o          1 GA0      -0.615100
      5 N2          -0.6300    -3.9690     4.2150 ns         1 GA0      -0.490900
      6 CA2         -0.6330    -4.0690     2.7380 c3         1 GA0       0.047700
      7 CB2         -2.0800    -4.2320     2.2110 c3         1 GA0      -0.107100
      8 C2           0.0790    -2.8300     2.1050 c          1 GA0       0.602100
      9 O2           0.2610    -1.8020     2.7510 o          1 GA0      -0.604100
     10 N3           0.4660    -2.8850     0.7470 n          1 GA0      -0.393800
     11 CD3          0.6280    -4.1410    -0.0170 c5         1 GA0       0.111000
     12 CA3          1.0360    -1.6970     0.0450 c5         1 GA0       0.028700
     13 CB3          1.7100    -2.3590    -1.2000 c5         1 GA0      -0.083400
     14 CG3          0.8110    -3.5960    -1.4530 c5         1 GA0      -0.095400
     15 C3          -0.0430    -0.6630    -0.4150 c          1 GA0       0.606100
     16 O3          -1.2580    -0.8410    -0.4460 o          1 GA0      -0.576100
     17 NN           0.6060     0.5190    -0.7550 ns         1 GA0      -0.142000
     18 C4           0.1250     1.7690    -1.2310 ca         1 GA0      -0.010000
     19 C5           1.0710     2.7900    -1.4420 ca         1 GA0      -0.167000
     20 C6           0.6730     4.0550    -1.9130 ca         1 GA0      -0.007000
     21 C7          -0.6880     4.3080    -2.1810 ca         1 GA0      -0.058000
     22 C8          -1.0870     5.5730    -2.6530 ca         1 GA0      -0.088000
     23 C9          -0.1300     6.5820    -2.8570 ca         1 GA0      -0.117000
     24 C10          1.2260     6.3310    -2.5900 ca         1 GA0      -0.101000
     25 C11          1.6280     5.0680    -2.1190 ca         1 GA0      -0.107000
     26 C12         -1.6380     3.2930    -1.9750 ca         1 GA0      -0.078000
     27 C13         -1.2360     2.0300    -1.5040 ca         1 GA0      -0.118000
     28 HN11        -1.7970    -6.2760     7.3850 hn         1 GA0       0.408500
     29 HN12        -0.2050    -6.4800     7.4100 hn         1 GA0       0.408500
     30 HA11         0.1900    -4.1370     6.7920 h1         1 GA0       0.069200
     31 HA12        -1.5660    -3.9110     6.7640 h1         1 GA0       0.069200
     32 HN2         -0.4960    -3.0510     4.6270 hn         1 GA0       0.322500
     33 HA2         -0.0510    -4.9560     2.4560 h1         1 GA0       0.073700
     34 HB21        -2.1070    -4.2870     1.1170 hc         1 GA0       0.053367
     35 HB22        -2.5380    -5.1470     2.6050 hc         1 GA0       0.053367
     36 HB23        -2.6980    -3.3800     2.5190 hc         1 GA0       0.053367
     37 HD31        -0.2400    -4.8080     0.0500 h1         1 GA0       0.050700
     38 HD32         1.5170    -4.6900     0.3230 h1         1 GA0       0.050700
     39 HA3          1.7760    -1.1750     0.6660 h1         1 GA0       0.079700
     40 HB31         2.7350    -2.6700    -0.9640 hc         1 GA0       0.060700
     41 HB32         1.7720    -1.6950    -2.0710 hc         1 GA0       0.060700
     42 HG31        -0.1510    -3.3100    -1.8950 hc         1 GA0       0.063200
     43 HG32         1.2750    -4.3290    -2.1230 hc         1 GA0       0.063200
     44 HNN          1.6120     0.4840    -0.6520 hn         1 GA0       0.152000
     45 H5           2.1220     2.6000    -1.2370 ha         1 GA0       0.112000
     46 H8          -2.1360     5.7760    -2.8620 ha         1 GA0       0.112000
     47 H9          -0.4400     7.5590    -3.2220 ha         1 GA0       0.112000
     48 H10          1.9660     7.1120    -2.7480 ha         1 GA0       0.111000
     49 H11          2.6800     4.8810    -1.9140 ha         1 GA0       0.112000
     50 H12         -2.6900     3.4780    -2.1810 ha         1 GA0       0.115000
     51 H13         -1.9990     1.2720    -1.3610 ha         1 GA0       0.143000
@<TRIPOS>BOND
     1     1     2 1   
     2     1    28 1   
     3     1    29 1   
     4     2     3 1   
     5     2    30 1   
     6     2    31 1   
     7     3     4 2   
     8     3     5 1   
     9     5     6 1   
    10     5    32 1   
    11     6     7 1   
    12     6     8 1   
    13     6    33 1   
    14     7    34 1   
    15     7    35 1   
    16     7    36 1   
    17     8     9 2   
    18     8    10 1   
    19    10    11 1   
    20    10    12 1   
    21    11    14 1   
    22    11    37 1   
    23    11    38 1   
    24    12    13 1   
    25    12    15 1   
    26    12    39 1   
    27    13    14 1   
    28    13    40 1   
    29    13    41 1   
    30    14    42 1   
    31    14    43 1   
    32    15    16 2   
    33    15    17 1   
    34    17    18 1   
    35    17    44 1   
    36    18    19 ar  
    37    18    27 ar  
    38    19    20 ar  
    39    19    45 1   
    40    20    21 ar  
    41    20    25 ar  
    42    21    22 ar  
    43    21    26 ar  
    44    22    23 ar  
    45    22    46 1   
    46    23    24 ar  
    47    23    47 1   
    48    24    25 ar  
    49    24    48 1   
    50    25    49 1   
    51    26    27 ar  
    52    26    50 1   
    53    27    51 1   
@<TRIPOS>SUBSTRUCTURE
     1 GA0         1 TEMP              0 ****  ****    0 ROOT
