@<TRIPOS>MOLECULE
GA2
   31    32     1     0     0
SMALL
No Charge or Current Charge


@<TRIPOS>ATOM
      1 N1          24.4750    96.5720    45.5030 ns         1 GA2      -0.457400
      2 C2          23.5390    95.6340    45.2400 cc         1 GA2       0.728800
      3 C4          21.9770    97.1810    44.7520 cd         1 GA2       0.155400
      4 C8          21.0030    99.1390    44.4140 cd         1 GA2       0.415400
      5 C9          17.2680    96.5800    46.1840 c3         1 GA2       0.151600
      6 O4          18.0830    95.3950    46.2550 oh         1 GA2      -0.719000
      7 C3          17.3040    99.1500    46.1740 c3         1 GA2       0.151600
      8 O3          18.1170   100.3290    46.0070 oh         1 GA2      -0.719000
      9 C7          18.1040    97.8560    45.8550 c3         1 GA2       0.155300
     10 O1          18.4320    97.8830    44.4370 os         1 GA2      -0.460000
     11 N9          20.7900    97.7630    44.3880 na         1 GA2      -0.213500
     12 N3          22.2960    95.8270    44.8650 nd         1 GA2      -0.707100
     13 N2          23.9220    94.3800    45.3790 nv         1 GA2      -1.046200
     14 C6          24.2490    97.9100    45.4070 c          1 GA2       0.520500
     15 O6          25.1230    98.7340    45.6440 o          1 GA2      -0.526000
     16 C5          22.8570    98.2030    44.9910 cc         1 GA2       0.097500
     17 N7          22.2550    99.4230    44.7800 nc         1 GA2      -0.602000
     18 HN1         25.4050    96.2840    45.7580 hn         1 GA2       0.320500
     19 H8          20.2270    99.8500    44.1550 h5         1 GA2       0.059100
     20 H4'1        16.4820    96.4630    45.4260 h1         1 GA2       0.030700
     21 H4'2        16.7670    96.7330    47.1490 h1         1 GA2       0.030700
     22 HO4         17.4840    94.6450    46.4810 ho         1 GA2       0.506500
     23 H3'1        16.9400    99.0940    47.2090 h1         1 GA2       0.030700
     24 H3'2        16.4230    99.1960    45.5180 h1         1 GA2       0.030700
     25 HO3         17.5330   101.1070    46.1680 ho         1 GA2       0.506500
     26 H2          19.0080    97.8600    46.4790 h1         1 GA2       0.086700
     27 H1'1        19.5470    96.0750    44.4550 h2         1 GA2       0.081200
     28 H1'2        19.5570    96.9650    42.9190 h2         1 GA2       0.081200
     29 HN21        23.1480    93.7270    45.3550 hn         1 GA2       0.498500
     30 HN22        24.6210    94.1890    46.0860 hn         1 GA2       0.498500
     31 C1          19.5510    97.0750    44.0090 c3         1 GA2       0.313600
@<TRIPOS>BOND
     1     1     2 1   
     2     1    14 1   
     3     1    18 1   
     4     2    12 2   
     5     2    13 1   
     6     3    11 1   
     7     3    12 1   
     8     3    16 2   
     9     4    11 1   
    10     4    17 2   
    11     4    19 1   
    12     5     6 1   
    13     5     9 1   
    14     5    20 1   
    15     5    21 1   
    16     6    22 1   
    17     7     8 1   
    18     7     9 1   
    19     7    23 1   
    20     7    24 1   
    21     8    25 1   
    22     9    10 1   
    23     9    26 1   
    24    10    31 1   
    25    11    31 1   
    26    13    29 1   
    27    13    30 1   
    28    14    15 2   
    29    14    16 1   
    30    16    17 1   
    31    27    31 1   
    32    28    31 1   
@<TRIPOS>SUBSTRUCTURE
     1 GA2         1 TEMP              0 ****  ****    0 ROOT
