@<TRIPOS>MOLECULE
GA2
   31    32     1     0     0
SMALL
abcg2


@<TRIPOS>ATOM
      1 N1          23.9070    97.1480    45.9530 ns         1 GA2      -0.457400
      2 C2          22.9190    96.1990    45.9620 cc         1 GA2       0.728800
      3 C4          21.7330    97.4690    44.5690 cd         1 GA2       0.155400
      4 C8          21.0490    99.1060    43.2620 cd         1 GA2       0.415400
      5 C9          17.2220    96.3520    46.0010 c3         1 GA2       0.151600
      6 O4          17.3930    95.1890    45.1910 oh         1 GA2      -0.719000
      7 C3          18.3830    98.4550    46.7160 c3         1 GA2       0.151600
      8 O3          19.6410    99.1250    46.6410 oh         1 GA2      -0.719000
      9 C7          18.4160    97.2610    45.7850 c3         1 GA2       0.155300
     10 O1          18.4140    97.7310    44.4240 os         1 GA2      -0.460000
     11 N9          20.6940    97.8710    43.7690 na         1 GA2      -0.213500
     12 N3          21.8010    96.3250    45.2760 nd         1 GA2      -0.707100
     13 N2          23.1450    95.0840    46.6880 nv         1 GA2      -1.046200
     14 C6          23.8860    98.3610    45.2360 c          1 GA2       0.520500
     15 O6          24.8360    99.1380    45.3150 o          1 GA2      -0.526000
     16 C5          22.6770    98.4880    44.4930 cc         1 GA2       0.097500
     17 N7          22.2260    99.5040    43.6660 nc         1 GA2      -0.602000
     18 HN1         24.7420    96.9860    46.5030 hn         1 GA2       0.320500
     19 H8          20.3910    99.6450    42.5990 h5         1 GA2       0.059100
     20 H4'1        16.3050    96.8830    45.7270 h1         1 GA2       0.030700
     21 H4'2        17.1640    96.0790    47.0600 h1         1 GA2       0.030700
     22 HO4         16.5820    94.6670    45.2360 ho         1 GA2       0.506500
     23 H3'1        18.1920    98.1080    47.7370 h1         1 GA2       0.030700
     24 H3'2        17.5680    99.1230    46.4190 h1         1 GA2       0.030700
     25 HO3         19.5710    99.9540    47.1270 ho         1 GA2       0.506500
     26 H2          19.3330    96.6950    45.9710 h1         1 GA2       0.086700
     27 H1'1        19.5630    96.1440    43.7510 h2         1 GA2       0.081200
     28 H1'2        19.0860    97.3880    42.5640 h2         1 GA2       0.081200
     29 HN21        22.3640    94.4650    46.8320 hn         1 GA2       0.498500
     30 HN22        23.8750    95.0700    47.3820 hn         1 GA2       0.498500
     31 C1          19.4110    97.2100    43.5870 c3         1 GA2       0.313600
@<TRIPOS>BOND
     1     1     2 1   
     2     1    14 1   
     3     1    18 1   
     4     2    12 2   
     5     2    13 1   
     6     3    11 1   
     7     3    12 1   
     8     3    16 2   
     9     4    11 1   
    10     4    17 2   
    11     4    19 1   
    12     5     6 1   
    13     5     9 1   
    14     5    20 1   
    15     5    21 1   
    16     6    22 1   
    17     7     8 1   
    18     7     9 1   
    19     7    23 1   
    20     7    24 1   
    21     8    25 1   
    22     9    10 1   
    23     9    26 1   
    24    10    31 1   
    25    11    31 1   
    26    13    29 1   
    27    13    30 1   
    28    14    15 2   
    29    14    16 1   
    30    16    17 1   
    31    27    31 1   
    32    28    31 1   
@<TRIPOS>SUBSTRUCTURE
     1 GA2         1 TEMP              0 ****  ****    0 ROOT
