@<TRIPOS>MOLECULE
GA3
   46    50     1     0     0
SMALL
No Charge or Current Charge


@<TRIPOS>ATOM
      1 O71          0.1320     3.5520    -1.0110 o          1 GA3      -0.725000
      2 C7           0.0870     2.7420    -0.0970 c          1 GA3       0.720000
      3 O72          0.0450     3.0960     1.0730 o          1 GA3      -0.725000
      4 C6           0.1230     1.2250    -0.4540 c5         1 GA3      -0.174700
      5 C5           1.2970     0.5060     0.3430 c5         1 GA3      -0.069700
      6 C8          -1.1660     0.4380     0.0300 c5         1 GA3      -0.016000
      7 C15         -2.3910     1.2740     0.5290 c5         1 GA3      -0.035200
      8 C16         -3.5360     0.2710     0.3910 c2         1 GA3      -0.112400
      9 C17         -4.7330     0.3850     0.9890 c2         1 GA3      -0.353000
     10 C13         -3.0590    -0.9060    -0.4680 c5         1 GA3       0.199200
     11 C14         -1.8270    -0.3060    -1.1840 c5         1 GA3      -0.068400
     12 O13         -4.0670    -1.2950    -1.3910 oh         1 GA3      -0.648000
     13 C12         -2.6300    -2.1260     0.3950 c6         1 GA3      -0.089400
     14 C11         -1.6900    -1.6980     1.5530 c6         1 GA3      -0.046400
     15 C9          -0.6960    -0.5570     1.1660 c5         1 GA3      -0.049700
     16 C10          0.7400    -0.8990     0.6890 c5         1 GA3       0.189200
     17 O92          0.7980    -1.6690    -0.5260 os         1 GA3      -0.420100
     18 C1           1.6590    -1.5800     1.6970 c2         1 GA3      -0.185200
     19 C2           2.9900    -1.4460     1.5070 c2         1 GA3      -0.259200
     20 C3           3.5910    -0.6040     0.3790 c6         1 GA3       0.211500
     21 O31          4.3640     0.4260     0.9930 oh         1 GA3      -0.634000
     22 C4           2.4780     0.0030    -0.5500 c5         1 GA3      -0.132000
     23 C18          3.0860     1.0550    -1.5270 c3         1 GA3      -0.058100
     24 C19          1.8050    -1.1690    -1.3030 c          1 GA3       0.653100
     25 O91          2.0490    -1.5770    -2.4300 o          1 GA3      -0.527000
     26 H6           0.2280     1.1370    -1.5400 hc         1 GA3       0.054700
     27 H5           1.6230     1.0590     1.2330 hc         1 GA3       0.123700
     28 H15         -2.2820     1.6440     1.5540 hc         1 GA3       0.080200
     29 H15A        -2.5790     2.1410    -0.1150 hc         1 GA3       0.080200
     30 H17         -4.9790     1.2470     1.6090 ha         1 GA3       0.151000
     31 H17A        -5.5010    -0.3820     0.8900 ha         1 GA3       0.151000
     32 H14         -2.1250     0.3990    -1.9700 hc         1 GA3       0.065200
     33 H14A        -1.2150    -1.0670    -1.6720 hc         1 GA3       0.065200
     34 HO13        -4.7900    -0.6440    -1.2690 ho         1 GA3       0.429000
     35 H12         -3.5140    -2.6290     0.8110 hc         1 GA3       0.036200
     36 H12A        -2.1220    -2.8650    -0.2400 hc         1 GA3       0.036200
     37 H11         -2.3150    -1.3430     2.3840 hc         1 GA3       0.031200
     38 H11A        -1.1460    -2.5690     1.9430 hc         1 GA3       0.031200
     39 H9          -0.5810     0.0040     2.1010 hc         1 GA3       0.075700
     40 H1           1.2620    -2.1800     2.5170 ha         1 GA3       0.179000
     41 H2           3.6960    -1.9360     2.1780 ha         1 GA3       0.163000
     42 H3           4.2490    -1.2430    -0.2290 h1         1 GA3       0.033700
     43 HO31         5.0020    -0.0240     1.5860 ho         1 GA3       0.428000
     44 H18          3.4030     1.9600    -0.9960 hc         1 GA3       0.048033
     45 H18A         3.9620     0.6490    -2.0490 hc         1 GA3       0.048033
     46 H18B         2.3690     1.3630    -2.2960 hc         1 GA3       0.048033
@<TRIPOS>BOND
     1     1     2 1   
     2     2     3 1   
     3     2     4 1   
     4     4     5 1   
     5     4     6 1   
     6     4    26 1   
     7     5    16 1   
     8     5    22 1   
     9     5    27 1   
    10     6     7 1   
    11     6    11 1   
    12     6    15 1   
    13     7     8 1   
    14     7    28 1   
    15     7    29 1   
    16     8     9 2   
    17     8    10 1   
    18     9    30 1   
    19     9    31 1   
    20    10    11 1   
    21    10    12 1   
    22    10    13 1   
    23    11    32 1   
    24    11    33 1   
    25    12    34 1   
    26    13    14 1   
    27    13    35 1   
    28    13    36 1   
    29    14    15 1   
    30    14    37 1   
    31    14    38 1   
    32    15    16 1   
    33    15    39 1   
    34    16    17 1   
    35    16    18 1   
    36    17    24 1   
    37    18    19 2   
    38    18    40 1   
    39    19    20 1   
    40    19    41 1   
    41    20    21 1   
    42    20    22 1   
    43    20    42 1   
    44    21    43 1   
    45    22    23 1   
    46    22    24 1   
    47    23    44 1   
    48    23    45 1   
    49    23    46 1   
    50    24    25 2   
@<TRIPOS>SUBSTRUCTURE
     1 GA3         1 TEMP              0 ****  ****    0 ROOT
