@<TRIPOS>MOLECULE
GA3
   46    50     1     0     0
SMALL
bcc


@<TRIPOS>ATOM
      1 O71         -0.1990     3.5340    -0.8660 o          1 GA3      -0.830300
      2 C7           0.1030     2.7210     0.0290 c          1 GA3       0.930600
      3 O72          0.3280     2.9870     1.2270 o          1 GA3      -0.830300
      4 C6           0.1490     1.2340    -0.3750 c5         1 GA3      -0.174700
      5 C5           1.3040     0.4720     0.2970 c5         1 GA3      -0.069700
      6 C8          -1.1490     0.4780     0.0500 c5         1 GA3      -0.016000
      7 C15         -2.3450     1.2770     0.5980 c5         1 GA3      -0.035200
      8 C16         -3.5160     0.3400     0.4060 c2         1 GA3      -0.112400
      9 C17         -4.7320     0.4800     0.9170 c2         1 GA3      -0.253000
     10 C13         -3.0720    -0.7980    -0.5100 c5         1 GA3       0.176000
     11 C14         -1.8230    -0.2120    -1.1450 c5         1 GA3      -0.068400
     12 O13         -4.0150    -1.1550    -1.4920 oh         1 GA3      -0.585800
     13 C12         -2.6320    -2.0200     0.3060 c6         1 GA3      -0.089400
     14 C11         -1.6900    -1.6450     1.4510 c6         1 GA3      -0.046400
     15 C9          -0.6890    -0.5310     1.1250 c5         1 GA3      -0.049700
     16 C10          0.7250    -0.8680     0.7340 c5         1 GA3       0.166000
     17 O92          0.7820    -1.6610    -0.4890 os         1 GA3      -0.396900
     18 C1           1.6350    -1.5380     1.7200 c2         1 GA3      -0.135200
     19 C2           2.9460    -1.4190     1.5300 c2         1 GA3      -0.209200
     20 C3           3.5450    -0.5990     0.4080 c6         1 GA3       0.188300
     21 O31          4.2580     0.4960     0.9390 oh         1 GA3      -0.571800
     22 C4           2.4650    -0.0330    -0.5540 c5         1 GA3      -0.132000
     23 C18          3.0590     0.9290    -1.5660 c3         1 GA3      -0.058100
     24 C19          1.8090    -1.2360    -1.2240 c          1 GA3       0.728600
     25 O91          2.1150    -1.7680    -2.2570 o          1 GA3      -0.602500
     26 H6           0.2290     1.1820    -1.4640 hc         1 GA3       0.054700
     27 H5           1.6460     1.0330     1.1650 hc         1 GA3       0.123700
     28 H15         -2.2150     1.5990     1.6330 hc         1 GA3       0.080200
     29 H15A        -2.4980     2.1790    -0.0030 hc         1 GA3       0.080200
     30 H17         -4.9850     1.3130     1.5630 ha         1 GA3       0.101000
     31 H17A        -5.5280    -0.2270     0.7170 ha         1 GA3       0.101000
     32 H14         -2.0830     0.5550    -1.8830 hc         1 GA3       0.065200
     33 H14A        -1.2130    -0.9610    -1.6470 hc         1 GA3       0.065200
     34 HO13        -4.7180    -1.6630    -1.0750 ho         1 GA3       0.390000
     35 H12         -3.5080    -2.5250     0.7260 hc         1 GA3       0.036200
     36 H12A        -2.1520    -2.7260    -0.3790 hc         1 GA3       0.036200
     37 H11         -2.2970    -1.3050     2.2920 hc         1 GA3       0.031200
     38 H11A        -1.1690    -2.5370     1.8080 hc         1 GA3       0.031200
     39 H9          -0.5480     0.0500     2.0460 hc         1 GA3       0.075700
     40 H1           1.2280    -2.1230     2.5370 ha         1 GA3       0.129000
     41 H2           3.6480    -1.9050     2.2000 ha         1 GA3       0.113000
     42 H3           4.2220    -1.2390    -0.1770 h1         1 GA3       0.033700
     43 HO31         5.0430     0.1600     1.3830 ho         1 GA3       0.389000
     44 H18          3.4110     1.8340    -1.0740 hc         1 GA3       0.048033
     45 H18A         3.9020     0.4790    -2.0930 hc         1 GA3       0.048033
     46 H18B         2.3200     1.2220    -2.3110 hc         1 GA3       0.048033
@<TRIPOS>BOND
     1     1     2 1   
     2     2     3 1   
     3     2     4 1   
     4     4     5 1   
     5     4     6 1   
     6     4    26 1   
     7     5    16 1   
     8     5    22 1   
     9     5    27 1   
    10     6     7 1   
    11     6    11 1   
    12     6    15 1   
    13     7     8 1   
    14     7    28 1   
    15     7    29 1   
    16     8     9 2   
    17     8    10 1   
    18     9    30 1   
    19     9    31 1   
    20    10    11 1   
    21    10    12 1   
    22    10    13 1   
    23    11    32 1   
    24    11    33 1   
    25    12    34 1   
    26    13    14 1   
    27    13    35 1   
    28    13    36 1   
    29    14    15 1   
    30    14    37 1   
    31    14    38 1   
    32    15    16 1   
    33    15    39 1   
    34    16    17 1   
    35    16    18 1   
    36    17    24 1   
    37    18    19 2   
    38    18    40 1   
    39    19    20 1   
    40    19    41 1   
    41    20    21 1   
    42    20    22 1   
    43    20    42 1   
    44    21    43 1   
    45    22    23 1   
    46    22    24 1   
    47    23    44 1   
    48    23    45 1   
    49    23    46 1   
    50    24    25 2   
@<TRIPOS>SUBSTRUCTURE
     1 GA3         1 TEMP              0 ****  ****    0 ROOT
