@<TRIPOS>MOLECULE
GA4
   47    51     1     0     0
SMALL
abcg2


@<TRIPOS>ATOM
      1 C1          -1.2050     1.9280     1.4240 c6         1 GA4      -0.071400
      2 C2          -1.3780     1.4780     2.8800 c6         1 GA4      -0.113400
      3 C3          -0.2950     0.5060     3.3750 c6         1 GA4       0.177300
      4 O31          0.9020     1.1670     3.7150 oh         1 GA4      -0.636000
      5 C4           0.0790    -0.5600     2.3080 c5         1 GA4      -0.133000
      6 C5           0.5560     0.1830     1.0620 c5         1 GA4      -0.072700
      7 C6           1.1470    -0.6280    -0.1080 c5         1 GA4      -0.175700
      8 C7           2.6370    -0.3190    -0.3440 c          1 GA4       0.719000
      9 O71          2.9810     0.8790    -0.2830 o          1 GA4      -0.728500
     10 O72          3.3770    -1.2860    -0.6150 o          1 GA4      -0.728500
     11 C8           0.2790    -0.2640    -1.3500 c5         1 GA4      -0.015000
     12 C9          -0.5500     0.9610    -0.9050 c5         1 GA4      -0.049700
     13 C10         -0.7710     0.7490     0.5740 c5         1 GA4       0.169000
     14 C11         -1.7350     1.3230    -1.8090 c6         1 GA4      -0.049400
     15 C12         -2.3510     0.1470    -2.5680 c6         1 GA4      -0.057400
     16 C13         -1.2780    -0.8390    -3.0470 c5         1 GA4      -0.039500
     17 C14         -0.6110    -1.4290    -1.8110 c5         1 GA4      -0.078400
     18 C15          0.9770     0.0580    -2.6840 c5         1 GA4      -0.039200
     19 C16         -0.1170    -0.1290    -3.7170 c2         1 GA4      -0.088400
     20 C17         -0.0690     0.2510    -4.9880 c2         1 GA4      -0.365000
     21 C18          0.9980    -1.6260     2.8720 c3         1 GA4      -0.058100
     22 C19         -1.2400    -1.1190     1.7980 c          1 GA4       0.658100
     23 O91         -1.8370    -2.0910     2.1760 o          1 GA4      -0.534000
     24 O92         -1.7050    -0.3400     0.8220 os         1 GA4      -0.430100
     25 H11         -2.1380     2.3670     1.0590 hc         1 GA4       0.051700
     26 H12         -0.4390     2.7030     1.3440 hc         1 GA4       0.051700
     27 H21         -2.3540     1.0040     3.0040 hc         1 GA4       0.038200
     28 H22         -1.4020     2.3460     3.5440 hc         1 GA4       0.038200
     29 H3          -0.6950    -0.0250     4.2510 h1         1 GA4       0.025700
     30 HO3          0.7110     1.7850     4.4270 ho         1 GA4       0.426000
     31 H5           1.2390     0.9940     1.3110 hc         1 GA4       0.122700
     32 H6           1.0490    -1.7030     0.0700 hc         1 GA4       0.051700
     33 H9           0.1420     1.8120    -0.9220 hc         1 GA4       0.074700
     34 H111        -2.5040     1.8460    -1.2350 hc         1 GA4       0.028700
     35 H112        -1.3780     2.0460    -2.5450 hc         1 GA4       0.028700
     36 H121        -3.0540    -0.4010    -1.9350 hc         1 GA4       0.031200
     37 H122        -2.9230     0.5310    -3.4170 hc         1 GA4       0.031200
     38 H13         -1.7310    -1.5900    -3.6990 hc         1 GA4       0.044700
     39 H141        -1.3300    -1.7890    -1.0760 hc         1 GA4       0.051200
     40 H142         0.0320    -2.2760    -2.0760 hc         1 GA4       0.051200
     41 H151         1.4280     1.0510    -2.7100 hc         1 GA4       0.076700
     42 H152         1.7780    -0.6670    -2.8630 hc         1 GA4       0.076700
     43 H171         0.7920     0.7640    -5.4000 ha         1 GA4       0.151000
     44 H172        -0.8910     0.0600    -5.6680 ha         1 GA4       0.151000
     45 H181         0.5800    -2.0730     3.7750 hc         1 GA4       0.046033
     46 H182         1.1650    -2.4290     2.1540 hc         1 GA4       0.046033
     47 H183         1.9680    -1.2010     3.1250 hc         1 GA4       0.046033
@<TRIPOS>BOND
     1     1     2 1   
     2     1    13 1   
     3     1    25 1   
     4     1    26 1   
     5     2     3 1   
     6     2    27 1   
     7     2    28 1   
     8     3     4 1   
     9     3     5 1   
    10     3    29 1   
    11     4    30 1   
    12     5     6 1   
    13     5    21 1   
    14     5    22 1   
    15     6     7 1   
    16     6    13 1   
    17     6    31 1   
    18     7     8 1   
    19     7    11 1   
    20     7    32 1   
    21     8     9 1   
    22     8    10 1   
    23    11    12 1   
    24    11    17 1   
    25    11    18 1   
    26    12    13 1   
    27    12    14 1   
    28    12    33 1   
    29    13    24 1   
    30    14    15 1   
    31    14    34 1   
    32    14    35 1   
    33    15    16 1   
    34    15    36 1   
    35    15    37 1   
    36    16    17 1   
    37    16    19 1   
    38    16    38 1   
    39    17    39 1   
    40    17    40 1   
    41    18    19 1   
    42    18    41 1   
    43    18    42 1   
    44    19    20 2   
    45    20    43 1   
    46    20    44 1   
    47    21    45 1   
    48    21    46 1   
    49    21    47 1   
    50    22    23 2   
    51    22    24 1   
@<TRIPOS>SUBSTRUCTURE
     1 GA4         1 TEMP              0 ****  ****    0 ROOT
