@<TRIPOS>MOLECULE
GA4
   47    51     1     0     0
SMALL
No Charge or Current Charge


@<TRIPOS>ATOM
      1 C1          -1.3000     1.9180     1.4810 c6         1 GA4      -0.071400
      2 C2          -1.4610     1.4310     2.9550 c6         1 GA4      -0.113400
      3 C3          -0.2880     0.5130     3.4380 c6         1 GA4       0.177300
      4 O31          0.8250     1.3310     3.8160 oh         1 GA4      -0.636000
      5 C4           0.1300    -0.5390     2.3460 c5         1 GA4      -0.133000
      6 C5           0.5810     0.2360     1.0360 c5         1 GA4      -0.072700
      7 C6           1.0950    -0.7310    -0.1220 c5         1 GA4      -0.175700
      8 C7           2.6290    -0.5510    -0.3290 c          1 GA4       0.719000
      9 O71          3.0980     0.5640    -0.5100 o          1 GA4      -0.728500
     10 O72          3.3410    -1.5430    -0.2720 o          1 GA4      -0.728500
     11 C8           0.2410    -0.2790    -1.3770 c5         1 GA4      -0.015000
     12 C9          -0.5530     1.0150    -0.9410 c5         1 GA4      -0.049700
     13 C10         -0.8140     0.7560     0.5740 c5         1 GA4       0.169000
     14 C11         -1.7270     1.4560    -1.8710 c6         1 GA4      -0.049400
     15 C12         -2.3840     0.2840    -2.6440 c6         1 GA4      -0.057400
     16 C13         -1.3300    -0.7700    -3.0840 c5         1 GA4      -0.039500
     17 C14         -0.7030    -1.4460    -1.8450 c5         1 GA4      -0.078400
     18 C15          1.0030     0.0020    -2.7160 c5         1 GA4      -0.039200
     19 C16         -0.1100    -0.1370    -3.7520 c2         1 GA4      -0.088400
     20 C17         -0.0340     0.2480    -5.0330 c2         1 GA4      -0.365000
     21 C18          1.1940    -1.5140     2.9340 c3         1 GA4      -0.058100
     22 C19         -1.1560    -1.2750     1.8770 c          1 GA4       0.658100
     23 O91         -1.5090    -2.4290     2.0790 o          1 GA4      -0.534000
     24 O92         -1.6540    -0.4630     0.8360 os         1 GA4      -0.430100
     25 H11         -2.2530     2.3190     1.1110 hc         1 GA4       0.051700
     26 H12         -0.5760     2.7430     1.4390 hc         1 GA4       0.051700
     27 H21         -2.4050     0.8740     3.0400 hc         1 GA4       0.038200
     28 H22         -1.5760     2.2940     3.6250 hc         1 GA4       0.038200
     29 H3          -0.6430    -0.0320     4.3250 h1         1 GA4       0.025700
     30 HO3          0.5090     1.9200     4.5340 ho         1 GA4       0.426000
     31 H5           1.2800     1.0580     1.2380 hc         1 GA4       0.122700
     32 H6           0.9060    -1.7890     0.0900 hc         1 GA4       0.051700
     33 H9           0.1260     1.8770    -0.9900 hc         1 GA4       0.074700
     34 H111        -2.4860     2.0110    -1.3040 hc         1 GA4       0.028700
     35 H112        -1.3330     2.1690    -2.6100 hc         1 GA4       0.028700
     36 H121        -3.1430    -0.1990    -2.0120 hc         1 GA4       0.031200
     37 H122        -2.9150     0.6740    -3.5230 hc         1 GA4       0.031200
     38 H13         -1.8430    -1.4850    -3.7370 hc         1 GA4       0.044700
     39 H141        -1.4540    -1.7830    -1.1270 hc         1 GA4       0.051200
     40 H142        -0.1290    -2.3370    -2.1290 hc         1 GA4       0.051200
     41 H151         1.4850     0.9850    -2.7510 hc         1 GA4       0.076700
     42 H152         1.7780    -0.7500    -2.9070 hc         1 GA4       0.076700
     43 H171         0.8700     0.7010    -5.4400 ha         1 GA4       0.151000
     44 H172        -0.8750     0.1250    -5.7150 ha         1 GA4       0.151000
     45 H181         0.8440    -1.9630     3.8710 hc         1 GA4       0.046033
     46 H182         1.4200    -2.3380     2.2480 hc         1 GA4       0.046033
     47 H183         2.1370    -0.9950     3.1450 hc         1 GA4       0.046033
@<TRIPOS>BOND
     1     1     2 1   
     2     1    13 1   
     3     1    25 1   
     4     1    26 1   
     5     2     3 1   
     6     2    27 1   
     7     2    28 1   
     8     3     4 1   
     9     3     5 1   
    10     3    29 1   
    11     4    30 1   
    12     5     6 1   
    13     5    21 1   
    14     5    22 1   
    15     6     7 1   
    16     6    13 1   
    17     6    31 1   
    18     7     8 1   
    19     7    11 1   
    20     7    32 1   
    21     8     9 1   
    22     8    10 1   
    23    11    12 1   
    24    11    17 1   
    25    11    18 1   
    26    12    13 1   
    27    12    14 1   
    28    12    33 1   
    29    13    24 1   
    30    14    15 1   
    31    14    34 1   
    32    14    35 1   
    33    15    16 1   
    34    15    36 1   
    35    15    37 1   
    36    16    17 1   
    37    16    19 1   
    38    16    38 1   
    39    17    39 1   
    40    17    40 1   
    41    18    19 1   
    42    18    41 1   
    43    18    42 1   
    44    19    20 2   
    45    20    43 1   
    46    20    44 1   
    47    21    45 1   
    48    21    46 1   
    49    21    47 1   
    50    22    23 2   
    51    22    24 1   
@<TRIPOS>SUBSTRUCTURE
     1 GA4         1 TEMP              0 ****  ****    0 ROOT
