@<TRIPOS>MOLECULE
GA5
   98   101     1     0     0
SMALL
No Charge or Current Charge


@<TRIPOS>ATOM
      1 O39        -10.3370     1.5910     0.9610 os         1 GA5      -0.334100
      2 C40        -11.2890     0.8160     1.7110 c3         1 GA5       0.145900
      3 C2          -8.9780     1.3680     1.0450 ca         1 GA5       0.195100
      4 C3          -8.4200     0.3730     1.8760 ca         1 GA5      -0.199500
      5 C4          -7.0270     0.1900     1.9200 ca         1 GA5       0.023500
      6 C5          -6.1880     0.9960     1.1280 ca         1 GA5      -0.340500
      7 C6          -6.7410     1.9970     0.3080 ca         1 GA5       0.023500
      8 C7          -8.1330     2.1760     0.2690 ca         1 GA5      -0.199500
      9 S8          -4.4060     0.7780     1.1670 sy         1 GA5       1.194600
     10 O9          -3.8210     2.1030     1.4040 o          1 GA5      -0.540500
     11 O10         -4.0350    -0.3640     2.0080 o          1 GA5      -0.540500
     12 N11         -4.0220     0.3810    -0.4570 n3         1 GA5      -0.779500
     13 C12         -4.1310    -1.0610    -0.8100 c3         1 GA5       0.233800
     14 C13         -5.5630    -1.6620    -0.8590 c3         1 GA5      -0.090700
     15 C14         -6.4620    -0.9570    -1.9030 c3         1 GA5      -0.087600
     16 C15         -5.5130    -3.1840    -1.1210 c3         1 GA5      -0.087600
     17 C16         -2.7650     1.0040    -0.9670 c3         1 GA5       0.202800
     18 C17         -1.4130     0.5230    -0.3350 c3         1 GA5       0.133300
     19 O18         -1.0670    -0.8120    -0.7780 oh         1 GA5      -0.651000
     20 C19         -0.2330     1.5100    -0.6180 c3         1 GA5       0.084700
     21 N20          1.0140     1.0820     0.0330 ns         1 GA5      -0.495900
     22 C21          1.2720     1.1420     1.3840 c          1 GA5       0.624700
     23 O22          0.4220     1.5130     2.1820 o          1 GA5      -0.595100
     24 C23          2.6690     0.7480     1.8120 ca         1 GA5      -0.146600
     25 C24          2.9550     0.5680     3.1790 ca         1 GA5      -0.050000
     26 C25          4.2430     0.1970     3.5980 ca         1 GA5      -0.115000
     27 C26          5.2780    -0.0190     2.6630 ca         1 GA5      -0.075300
     28 C27          5.0070     0.1850     1.2840 ca         1 GA5      -0.116300
     29 C28          3.7150     0.5720     0.8770 ca         1 GA5      -0.075000
     30 C42          6.6890    -0.3900     3.1720 c6         1 GA5       0.217600
     31 C43          7.6910    -0.7480     2.0480 c6         1 GA5      -0.078400
     32 C44          7.5100     0.1660     0.8180 c6         1 GA5      -0.084400
     33 C45          6.0980     0.0100     0.2120 c6         1 GA5       0.172000
     34 N46          5.9550    -1.3090    -0.4150 ns         1 GA5      -0.497900
     35 C47          5.0530    -1.6500    -1.3790 c          1 GA5       0.648100
     36 O48          4.3230    -0.8640    -1.9570 o          1 GA5      -0.564000
     37 O49          5.1590    -2.9950    -1.5970 os         1 GA5      -0.474100
     38 C50          4.3280    -3.6930    -2.5560 c3         1 GA5       0.225000
     39 C51          4.6170    -3.1590    -3.9830 c3         1 GA5      -0.111100
     40 C52          4.7740    -5.1670    -2.4440 c3         1 GA5      -0.111100
     41 C53          2.8380    -3.5590    -2.1470 c3         1 GA5      -0.111100
     42 C32          0.0350     1.7800    -2.1260 c3         1 GA5      -0.048100
     43 C33          2.4610     2.0060    -2.8730 ca         1 GA5      -0.102000
     44 C34          3.6310     2.7630    -3.0560 ca         1 GA5      -0.106000
     45 C35          3.6420     4.1290    -2.7310 ca         1 GA5      -0.109000
     46 C36          2.4820     4.7380    -2.2230 ca         1 GA5      -0.106000
     47 C37          1.3120     3.9800    -2.0370 ca         1 GA5      -0.102000
     48 C38          1.2950     2.6090    -2.3600 ca         1 GA5      -0.086300
     49 H1         -12.3100     1.1560     1.4940 h1         1 GA5       0.046367
     50 H2         -11.2220    -0.2470     1.4470 h1         1 GA5       0.046367
     51 H3         -11.1170     0.9240     2.7890 h1         1 GA5       0.046367
     52 H4          -9.0460    -0.2650     2.4910 ha         1 GA5       0.127500
     53 H5          -6.6100    -0.5820     2.5650 ha         1 GA5       0.134000
     54 H6          -6.0970     2.6270    -0.3040 ha         1 GA5       0.134000
     55 H7          -8.5610     2.9440    -0.3690 ha         1 GA5       0.127500
     56 H8          -3.6980    -1.2200    -1.8070 h1         1 GA5       0.062200
     57 H9          -3.5230    -1.6640    -0.1210 h1         1 GA5       0.062200
     58 H10         -6.0250    -1.5390     0.1240 hc         1 GA5       0.052700
     59 H11         -6.0660    -1.0980    -2.9160 hc         1 GA5       0.036200
     60 H12         -7.4810    -1.3620    -1.8730 hc         1 GA5       0.036200
     61 H13         -6.5230     0.1200    -1.7130 hc         1 GA5       0.036200
     62 H14         -4.9210    -3.6910    -0.3490 hc         1 GA5       0.036200
     63 H15         -6.5220    -3.6130    -1.1090 hc         1 GA5       0.036200
     64 H16         -5.0600    -3.3990    -2.0970 hc         1 GA5       0.036200
     65 H17         -2.7050     0.8410    -2.0510 h1         1 GA5       0.052700
     66 H18         -2.8270     2.0940    -0.8500 h1         1 GA5       0.052700
     67 H19         -1.5510     0.5160     0.7540 h1         1 GA5       0.113700
     68 H20         -0.7210    -0.7410    -1.6910 ho         1 GA5       0.432000
     69 H21         -0.5080     2.4750    -0.1680 h1         1 GA5       0.093700
     70 H22          1.7670     0.7550    -0.5550 hn         1 GA5       0.322500
     71 H23          2.1780     0.7150     3.9260 ha         1 GA5       0.136000
     72 H24          4.4310     0.0850     4.6630 ha         1 GA5       0.114000
     73 H25          3.5410     0.7540    -0.1790 ha         1 GA5       0.130000
     74 H27          7.0800     0.5000     3.6870 h1         1 GA5       0.038700
     75 H28          8.7170    -0.6630     2.4320 hc         1 GA5       0.057700
     76 H29          7.5630    -1.7980     1.7520 hc         1 GA5       0.057700
     77 H30          7.6690     1.2140     1.1110 hc         1 GA5       0.058200
     78 H31          8.2720    -0.0610     0.0590 hc         1 GA5       0.058200
     79 H32          5.9660     0.7780    -0.5660 h1         1 GA5       0.089700
     80 H33          6.4950    -2.0780    -0.0450 hn         1 GA5       0.325500
     81 H34          5.6960    -3.1090    -4.1680 hc         1 GA5       0.050033
     82 H35          4.1750    -3.8240    -4.7350 hc         1 GA5       0.050033
     83 H36          4.1910    -2.1630    -4.1430 hc         1 GA5       0.050033
     84 H37          4.6170    -5.5460    -1.4270 hc         1 GA5       0.050033
     85 H38          4.2040    -5.8010    -3.1350 hc         1 GA5       0.050033
     86 H39          5.8380    -5.2720    -2.6880 hc         1 GA5       0.050033
     87 H40          2.4490    -2.5530    -2.3390 hc         1 GA5       0.050033
     88 H41          2.2200    -4.2590    -2.7220 hc         1 GA5       0.050033
     89 H42          2.7040    -3.7850    -1.0830 hc         1 GA5       0.050033
     90 H43          0.1170     0.8270    -2.6620 hc         1 GA5       0.044700
     91 H44         -0.8270     2.3000    -2.5620 hc         1 GA5       0.044700
     92 H45          2.4660     0.9470    -3.1240 ha         1 GA5       0.114000
     93 H46          4.5280     2.2880    -3.4470 ha         1 GA5       0.114500
     94 H47          4.5470     4.7150    -2.8720 ha         1 GA5       0.111000
     95 H48          2.4890     5.7960    -1.9700 ha         1 GA5       0.114500
     96 H49          0.4210     4.4590    -1.6370 ha         1 GA5       0.114000
     97 O41          6.6270    -1.4850     4.0930 oh         1 GA5      -0.652000
     98 H26          5.9970    -1.2220     4.7960 ho         1 GA5       0.446000
@<TRIPOS>BOND
     1     1     2 1   
     2     1     3 1   
     3     2    49 1   
     4     2    50 1   
     5     2    51 1   
     6     3     4 ar  
     7     3     8 ar  
     8     4     5 ar  
     9     4    52 1   
    10     5     6 ar  
    11     5    53 1   
    12     6     7 ar  
    13     6     9 1   
    14     7     8 ar  
    15     7    54 1   
    16     8    55 1   
    17     9    10 2   
    18     9    11 2   
    19     9    12 1   
    20    12    13 1   
    21    12    17 1   
    22    13    14 1   
    23    13    56 1   
    24    13    57 1   
    25    14    15 1   
    26    14    16 1   
    27    14    58 1   
    28    15    59 1   
    29    15    60 1   
    30    15    61 1   
    31    16    62 1   
    32    16    63 1   
    33    16    64 1   
    34    17    18 1   
    35    17    65 1   
    36    17    66 1   
    37    18    19 1   
    38    18    20 1   
    39    18    67 1   
    40    19    68 1   
    41    20    21 1   
    42    20    42 1   
    43    20    69 1   
    44    21    22 1   
    45    21    70 1   
    46    22    23 2   
    47    22    24 1   
    48    24    25 ar  
    49    24    29 ar  
    50    25    26 ar  
    51    25    71 1   
    52    26    27 ar  
    53    26    72 1   
    54    27    28 ar  
    55    27    30 1   
    56    28    29 ar  
    57    28    33 1   
    58    29    73 1   
    59    30    31 1   
    60    30    74 1   
    61    30    97 1   
    62    31    32 1   
    63    31    75 1   
    64    31    76 1   
    65    32    33 1   
    66    32    77 1   
    67    32    78 1   
    68    33    34 1   
    69    33    79 1   
    70    34    35 1   
    71    34    80 1   
    72    35    36 2   
    73    35    37 1   
    74    37    38 1   
    75    38    39 1   
    76    38    40 1   
    77    38    41 1   
    78    39    81 1   
    79    39    82 1   
    80    39    83 1   
    81    40    84 1   
    82    40    85 1   
    83    40    86 1   
    84    41    87 1   
    85    41    88 1   
    86    41    89 1   
    87    42    48 1   
    88    42    90 1   
    89    42    91 1   
    90    43    44 ar  
    91    43    48 ar  
    92    43    92 1   
    93    44    45 ar  
    94    44    93 1   
    95    45    46 ar  
    96    45    94 1   
    97    46    47 ar  
    98    46    95 1   
    99    47    48 ar  
   100    47    96 1   
   101    97    98 1   
@<TRIPOS>SUBSTRUCTURE
     1 GA5         1 TEMP              0 ****  ****    0 ROOT
