@<TRIPOS>MOLECULE
GA5
   98   101     1     0     0
SMALL
abcg2


@<TRIPOS>ATOM
      1 O39         -8.9380     2.5810     0.4340 os         1 GA5      -0.334100
      2 C40        -10.2310     2.0440     0.2130 c3         1 GA5       0.145900
      3 C2          -7.9440     1.7530     0.7700 ca         1 GA5       0.195100
      4 C3          -8.0910     0.3750     0.9350 ca         1 GA5      -0.199500
      5 C4          -6.9950    -0.3990     1.2780 ca         1 GA5       0.023500
      6 C5          -5.7520     0.1870     1.4570 ca         1 GA5      -0.340500
      7 C6          -5.6050     1.5670     1.3190 ca         1 GA5       0.023500
      8 C7          -6.6910     2.3420     0.9740 ca         1 GA5      -0.199500
      9 S8          -4.3370    -0.8090     1.8120 sy         1 GA5       1.194600
     10 O9          -3.4640    -0.0060     2.6570 o          1 GA5      -0.540500
     11 O10         -4.8090    -2.1040     2.2770 o          1 GA5      -0.540500
     12 N11         -3.5420    -1.0630     0.4000 n3         1 GA5      -0.779500
     13 C12         -3.8780    -2.2100    -0.4440 c3         1 GA5       0.233800
     14 C13         -5.2140    -2.1450    -1.1850 c3         1 GA5      -0.090700
     15 C14         -5.3780    -0.8710    -2.0050 c3         1 GA5      -0.087600
     16 C15         -5.3320    -3.3810    -2.0710 c3         1 GA5      -0.087600
     17 C16         -2.6460    -0.0310    -0.1020 c3         1 GA5       0.202800
     18 C17         -1.1990    -0.2510     0.3290 c3         1 GA5       0.133300
     19 O18         -0.6840    -1.4810    -0.1320 oh         1 GA5      -0.651000
     20 C19         -0.3010     0.9340    -0.0520 c3         1 GA5       0.084700
     21 N20          1.0150     0.7450     0.5120 ns         1 GA5      -0.495900
     22 C21          1.6010     1.5870     1.3850 c          1 GA5       0.624700
     23 O22          1.0300     2.5350     1.9030 o          1 GA5      -0.595100
     24 C23          3.0260     1.2720     1.7010 ca         1 GA5      -0.146600
     25 C24          3.5170     1.5060     2.9840 ca         1 GA5      -0.050000
     26 C25          4.8320     1.2090     3.2820 ca         1 GA5      -0.115000
     27 C26          5.7040     0.7010     2.3150 ca         1 GA5      -0.075300
     28 C27          5.2250     0.5020     1.0210 ca         1 GA5      -0.116300
     29 C28          3.8920     0.7860     0.7340 ca         1 GA5      -0.075000
     30 C42          7.1450     0.3950     2.6850 c6         1 GA5       0.217600
     31 C43          7.7640    -0.5980     1.7170 c6         1 GA5      -0.078400
     32 C44          7.5620    -0.1110     0.2910 c6         1 GA5      -0.084400
     33 C45          6.0870    -0.0670    -0.0920 c6         1 GA5       0.172000
     34 N46          5.6010    -1.3830    -0.4690 ns         1 GA5      -0.497900
     35 C47          4.7510    -1.5750    -1.5030 c          1 GA5       0.648100
     36 O48          4.4410    -0.7160    -2.3070 o          1 GA5      -0.564000
     37 O49          4.3220    -2.8360    -1.5190 os         1 GA5      -0.474100
     38 C50          3.2950    -3.2930    -2.4400 c3         1 GA5       0.225000
     39 C51          3.7790    -3.2300    -3.8830 c3         1 GA5      -0.111100
     40 C52          3.0840    -4.7450    -2.0280 c3         1 GA5      -0.111100
     41 C53          2.0000    -2.5130    -2.2400 c3         1 GA5      -0.111100
     42 C32         -0.1930     1.1720    -1.5680 c3         1 GA5      -0.048100
     43 C33          2.0430     2.0680    -2.3060 ca         1 GA5      -0.102000
     44 C34          2.9200     3.1170    -2.5460 ca         1 GA5      -0.106000
     45 C35          2.4990     4.4280    -2.3740 ca         1 GA5      -0.109000
     46 C36          1.1970     4.6800    -1.9600 ca         1 GA5      -0.106000
     47 C37          0.3270     3.6270    -1.7160 ca         1 GA5      -0.102000
     48 C38          0.7390     2.3070    -1.8840 ca         1 GA5      -0.086300
     49 H1         -10.8730     2.8840    -0.0390 h1         1 GA5       0.046367
     50 H2         -10.2380     1.3330    -0.6170 h1         1 GA5       0.046367
     51 H3         -10.6240     1.5530     1.1060 h1         1 GA5       0.046367
     52 H4          -9.0470    -0.1110     0.8030 ha         1 GA5       0.127500
     53 H5          -7.1300    -1.4640     1.4110 ha         1 GA5       0.134000
     54 H6          -4.6520     2.0490     1.4930 ha         1 GA5       0.134000
     55 H7          -6.5820     3.4130     0.8670 ha         1 GA5       0.127500
     56 H8          -3.0740    -2.2890    -1.1770 h1         1 GA5       0.062200
     57 H9          -3.8300    -3.1220     0.1510 h1         1 GA5       0.062200
     58 H10         -6.0240    -2.1910    -0.4520 hc         1 GA5       0.052700
     59 H11         -4.5860    -0.7740    -2.7510 hc         1 GA5       0.036200
     60 H12         -6.3300    -0.8840    -2.5390 hc         1 GA5       0.036200
     61 H13         -5.3750     0.0270    -1.3850 hc         1 GA5       0.036200
     62 H14         -5.2400    -4.3020    -1.4930 hc         1 GA5       0.036200
     63 H15         -6.2980    -3.4050    -2.5770 hc         1 GA5       0.036200
     64 H16         -4.5560    -3.3900    -2.8400 hc         1 GA5       0.036200
     65 H17         -2.7340    -0.0230    -1.1900 h1         1 GA5       0.052700
     66 H18         -2.9690     0.9620     0.2180 h1         1 GA5       0.052700
     67 H19         -1.1810    -0.3210     1.4190 h1         1 GA5       0.113700
     68 H20         -0.7910    -1.5410    -1.0870 ho         1 GA5       0.432000
     69 H21         -0.7240     1.8270     0.4110 h1         1 GA5       0.093700
     70 H22          1.5150    -0.0840     0.2320 hn         1 GA5       0.322500
     71 H23          2.8660     1.9020     3.7530 ha         1 GA5       0.136000
     72 H24          5.1810     1.3750     4.2930 ha         1 GA5       0.114000
     73 H25          3.5410     0.6500    -0.2830 ha         1 GA5       0.130000
     74 H27          7.7120     1.3330     2.6020 h1         1 GA5       0.038700
     75 H28          8.8280    -0.7000     1.9360 hc         1 GA5       0.057700
     76 H29          7.3150    -1.5870     1.8630 hc         1 GA5       0.057700
     77 H30          7.9720     0.8980     0.1960 hc         1 GA5       0.058200
     78 H31          8.1010    -0.7350    -0.4220 hc         1 GA5       0.058200
     79 H32          5.9790     0.5660    -0.9740 h1         1 GA5       0.089700
     80 H33          5.6870    -2.1260     0.2090 hn         1 GA5       0.325500
     81 H34          4.7300    -3.7500    -4.0010 hc         1 GA5       0.050033
     82 H35          3.0510    -3.7260    -4.5260 hc         1 GA5       0.050033
     83 H36          3.8930    -2.2080    -4.2370 hc         1 GA5       0.050033
     84 H37          2.7510    -4.8210    -0.9920 hc         1 GA5       0.050033
     85 H38          2.3200    -5.1980    -2.6590 hc         1 GA5       0.050033
     86 H39          3.9990    -5.3290    -2.1390 hc         1 GA5       0.050033
     87 H40          2.0730    -1.4860    -2.5950 hc         1 GA5       0.050033
     88 H41          1.2000    -2.9990    -2.7990 hc         1 GA5       0.050033
     89 H42          1.7070    -2.5050    -1.1880 hc         1 GA5       0.050033
     90 H43          0.1560     0.2640    -2.0710 hc         1 GA5       0.044700
     91 H44         -1.1870     1.3900    -1.9680 hc         1 GA5       0.044700
     92 H45          2.3850     1.0500    -2.4520 ha         1 GA5       0.114000
     93 H46          3.9320     2.9060    -2.8670 ha         1 GA5       0.114500
     94 H47          3.1780     5.2500    -2.5630 ha         1 GA5       0.111000
     95 H48          0.8580     5.6990    -1.8260 ha         1 GA5       0.114500
     96 H49         -0.6860     3.8350    -1.3910 ha         1 GA5       0.114000
     97 O41          7.2510    -0.1170     3.9950 oh         1 GA5      -0.652000
     98 H26          7.3430     0.6150     4.6120 ho         1 GA5       0.446000
@<TRIPOS>BOND
     1     1     2 1   
     2     1     3 1   
     3     2    49 1   
     4     2    50 1   
     5     2    51 1   
     6     3     4 ar  
     7     3     8 ar  
     8     4     5 ar  
     9     4    52 1   
    10     5     6 ar  
    11     5    53 1   
    12     6     7 ar  
    13     6     9 1   
    14     7     8 ar  
    15     7    54 1   
    16     8    55 1   
    17     9    10 2   
    18     9    11 2   
    19     9    12 1   
    20    12    13 1   
    21    12    17 1   
    22    13    14 1   
    23    13    56 1   
    24    13    57 1   
    25    14    15 1   
    26    14    16 1   
    27    14    58 1   
    28    15    59 1   
    29    15    60 1   
    30    15    61 1   
    31    16    62 1   
    32    16    63 1   
    33    16    64 1   
    34    17    18 1   
    35    17    65 1   
    36    17    66 1   
    37    18    19 1   
    38    18    20 1   
    39    18    67 1   
    40    19    68 1   
    41    20    21 1   
    42    20    42 1   
    43    20    69 1   
    44    21    22 1   
    45    21    70 1   
    46    22    23 2   
    47    22    24 1   
    48    24    25 ar  
    49    24    29 ar  
    50    25    26 ar  
    51    25    71 1   
    52    26    27 ar  
    53    26    72 1   
    54    27    28 ar  
    55    27    30 1   
    56    28    29 ar  
    57    28    33 1   
    58    29    73 1   
    59    30    31 1   
    60    30    74 1   
    61    30    97 1   
    62    31    32 1   
    63    31    75 1   
    64    31    76 1   
    65    32    33 1   
    66    32    77 1   
    67    32    78 1   
    68    33    34 1   
    69    33    79 1   
    70    34    35 1   
    71    34    80 1   
    72    35    36 2   
    73    35    37 1   
    74    37    38 1   
    75    38    39 1   
    76    38    40 1   
    77    38    41 1   
    78    39    81 1   
    79    39    82 1   
    80    39    83 1   
    81    40    84 1   
    82    40    85 1   
    83    40    86 1   
    84    41    87 1   
    85    41    88 1   
    86    41    89 1   
    87    42    48 1   
    88    42    90 1   
    89    42    91 1   
    90    43    44 ar  
    91    43    48 ar  
    92    43    92 1   
    93    44    45 ar  
    94    44    93 1   
    95    45    46 ar  
    96    45    94 1   
    97    46    47 ar  
    98    46    95 1   
    99    47    48 ar  
   100    47    96 1   
   101    97    98 1   
@<TRIPOS>SUBSTRUCTURE
     1 GA5         1 TEMP              0 ****  ****    0 ROOT
