@<TRIPOS>MOLECULE
GA6
   32    33     1     0     0
SMALL
No Charge or Current Charge


@<TRIPOS>ATOM
      1 N            3.6500     0.5080    -0.5970 nu         1 GA6      -0.858100
      2 C            4.5380    -0.3140     1.8570 c3         1 GA6      -0.385100
      3 O           -4.6800    -2.3830    -0.6550 o          1 GA6      -0.716500
      4 C1           2.2630     0.5620    -0.4330 ca         1 GA6       0.193000
      5 C10         -4.8710     1.1200     0.3080 ca         1 GA6      -0.069000
      6 C11         -4.3140    -0.1210    -0.0760 ca         1 GA6      -0.139600
      7 C12         -5.2040    -1.3250    -0.3350 c          1 GA6       0.713600
      8 C13         -2.9080    -0.2140    -0.2180 ca         1 GA6      -0.063000
      9 C2           1.5950     1.7460    -0.7870 ca         1 GA6      -0.109500
     10 C3           0.2000     1.8560    -0.6420 ca         1 GA6      -0.103000
     11 C4           1.5080    -0.5200     0.0620 ca         1 GA6      -0.109500
     12 C5           0.1130    -0.4110     0.2070 ca         1 GA6      -0.103000
     13 C6          -0.5710     0.7800    -0.1400 cp         1 GA6       0.024000
     14 C7          -2.0570     0.8970     0.0150 cp         1 GA6      -0.100000
     15 C8          -2.6560     2.1220     0.3970 ca         1 GA6      -0.119000
     16 C9          -4.0460     2.2310     0.5420 ca         1 GA6      -0.151000
     17 O1          -6.4140    -1.1960    -0.2130 o          1 GA6      -0.716500
     18 O2           4.4350    -1.8630    -0.3030 o          1 GA6      -0.535500
     19 O3           6.0720     0.0820    -0.2620 o          1 GA6      -0.535500
     20 S            4.7780    -0.4970     0.1000 s6         1 GA6       1.182100
     21 H1           3.5230    -0.6450     2.0940 h1         1 GA6       0.099367
     22 H            5.2840    -0.9400     2.3560 h1         1 GA6       0.099367
     23 H2           4.6790     0.7430     2.1010 h1         1 GA6       0.099367
     24 H10         -5.9480     1.2270     0.4270 ha         1 GA6       0.130000
     25 H12         -2.4680    -1.1590    -0.5280 ha         1 GA6       0.132000
     26 H4           2.1560     2.5900    -1.1800 ha         1 GA6       0.116000
     27 H5          -0.2880     2.7820    -0.9340 ha         1 GA6       0.127500
     28 H6           1.9850    -1.4540     0.3380 ha         1 GA6       0.116000
     29 H7          -0.4400    -1.2570     0.6060 ha         1 GA6       0.127500
     30 H8          -2.0370     2.9930     0.5960 ha         1 GA6       0.084000
     31 H9          -4.4870     3.1790     0.8410 ha         1 GA6       0.089000
     32 H3           4.1420     1.3560    -0.8450 hn         1 GA6       0.479000
@<TRIPOS>BOND
     1     1     4 1   
     2     1    20 1   
     3     1    32 1   
     4     2    20 1   
     5     2    21 1   
     6     2    22 1   
     7     2    23 1   
     8     3     7 1   
     9     4     9 ar  
    10     4    11 ar  
    11     5     6 ar  
    12     5    16 ar  
    13     5    24 1   
    14     6     7 1   
    15     6     8 ar  
    16     7    17 1   
    17     8    14 ar  
    18     8    25 1   
    19     9    10 ar  
    20     9    26 1   
    21    10    13 ar  
    22    10    27 1   
    23    11    12 ar  
    24    11    28 1   
    25    12    13 ar  
    26    12    29 1   
    27    13    14 1   
    28    14    15 ar  
    29    15    16 ar  
    30    15    30 1   
    31    16    31 1   
    32    18    20 2   
    33    19    20 2   
@<TRIPOS>SUBSTRUCTURE
     1 GA6         1 TEMP              0 ****  ****    0 ROOT
