@<TRIPOS>MOLECULE
GA6
   32    33     1     0     0
SMALL
abcg2


@<TRIPOS>ATOM
      1 N            3.5780    -0.0290    -0.8040 nu         1 GA6      -0.858100
      2 C            4.5770     0.8110     1.6210 c3         1 GA6      -0.385100
      3 O           -4.7880    -1.9440    -1.4960 o          1 GA6      -0.716500
      4 C1           2.1960     0.1610    -0.5460 ca         1 GA6       0.193000
      5 C10         -4.7410     1.0720     0.5190 ca         1 GA6      -0.069000
      6 C11         -4.2920    -0.0130    -0.2280 ca         1 GA6      -0.139600
      7 C12         -5.2770    -1.0050    -0.8390 c          1 GA6       0.713600
      8 C13         -2.9240    -0.1750    -0.4150 ca         1 GA6      -0.063000
      9 C2           1.6610     1.4430    -0.4700 ca         1 GA6      -0.109500
     10 C3           0.3040     1.6210    -0.2600 ca         1 GA6      -0.103000
     11 C4           1.3580    -0.9380    -0.3990 ca         1 GA6      -0.109500
     12 C5           0.0060    -0.7500    -0.1670 ca         1 GA6      -0.103000
     13 C6          -0.5500     0.5290    -0.0980 cp         1 GA6       0.024000
     14 C7          -1.9980     0.7190     0.1230 cp         1 GA6      -0.100000
     15 C8          -2.4730     1.7980     0.8700 ca         1 GA6      -0.119000
     16 C9          -3.8350     1.9710     1.0650 ca         1 GA6      -0.151000
     17 O1          -6.4850    -0.7900    -0.6270 o          1 GA6      -0.716500
     18 O2           3.9780    -1.6780     1.0520 o          1 GA6      -0.535500
     19 O3           5.9090    -0.6100    -0.1540 o          1 GA6      -0.535500
     20 S            4.5830    -0.5110     0.4320 s6         1 GA6       1.182100
     21 H1           3.5610     0.9810     1.9690 h1         1 GA6       0.099367
     22 H            5.2070     0.5090     2.4570 h1         1 GA6       0.099367
     23 H2           4.9770     1.7110     1.1590 h1         1 GA6       0.099367
     24 H10         -5.8020     1.2130     0.6740 ha         1 GA6       0.130000
     25 H12         -2.5810    -1.0110    -1.0120 ha         1 GA6       0.132000
     26 H4           2.3050     2.3060    -0.5890 ha         1 GA6       0.116000
     27 H5          -0.0910     2.6290    -0.2330 ha         1 GA6       0.127500
     28 H6           1.7560    -1.9400    -0.4750 ha         1 GA6       0.116000
     29 H7          -0.6250    -1.6190    -0.0340 ha         1 GA6       0.127500
     30 H8          -1.7780     2.4970     1.3190 ha         1 GA6       0.084000
     31 H9          -4.1890     2.8100     1.6500 ha         1 GA6       0.089000
     32 H3           4.0050     0.7040    -1.3630 hn         1 GA6       0.479000
@<TRIPOS>BOND
     1     1     4 1   
     2     1    20 1   
     3     1    32 1   
     4     2    20 1   
     5     2    21 1   
     6     2    22 1   
     7     2    23 1   
     8     3     7 1   
     9     4     9 ar  
    10     4    11 ar  
    11     5     6 ar  
    12     5    16 ar  
    13     5    24 1   
    14     6     7 1   
    15     6     8 ar  
    16     7    17 1   
    17     8    14 ar  
    18     8    25 1   
    19     9    10 ar  
    20     9    26 1   
    21    10    13 ar  
    22    10    27 1   
    23    11    12 ar  
    24    11    28 1   
    25    12    13 ar  
    26    12    29 1   
    27    13    14 1   
    28    14    15 ar  
    29    15    16 ar  
    30    15    30 1   
    31    16    31 1   
    32    18    20 2   
    33    19    20 2   
@<TRIPOS>SUBSTRUCTURE
     1 GA6         1 TEMP              0 ****  ****    0 ROOT
