@<TRIPOS>MOLECULE
GA8
   95    98     1     0     0
SMALL
No Charge or Current Charge


@<TRIPOS>ATOM
      1 C40         11.2920    -0.8740     2.7180 c3         1 GA8       0.145900
      2 O39         10.5320    -1.6100     1.7420 os         1 GA8      -0.335100
      3 C2           9.1650    -1.4720     1.6180 ca         1 GA8       0.196100
      4 C3           8.4100    -0.6020     2.4340 ca         1 GA8      -0.200000
      5 C4           7.0190    -0.5010     2.2600 ca         1 GA8       0.028500
      6 C5           6.3780    -1.2710     1.2710 ca         1 GA8      -0.324500
      7 C6           7.1280    -2.1370     0.4550 ca         1 GA8       0.028500
      8 C7           8.5180    -2.2330     0.6330 ca         1 GA8      -0.200000
      9 S8           4.6050    -1.1380     1.0160 sy         1 GA8       1.180600
     10 O9           4.0870    -2.5060     0.9150 o          1 GA8      -0.544500
     11 O10          4.0230    -0.1530     1.9330 o          1 GA8      -0.544500
     12 N11          4.5190    -0.4960    -0.5610 n3         1 GA8      -0.773500
     13 C12          5.2300     0.7950    -0.7380 c3         1 GA8       0.221800
     14 C13          5.5780     1.1630    -2.2070 c3         1 GA8      -0.070700
     15 C14          6.2700     2.5420    -2.2810 c3         1 GA8      -0.088100
     16 C15          6.4390     0.0740    -2.8920 c3         1 GA8      -0.088100
     17 C16          3.1840    -0.6150    -1.2210 c3         1 GA8       0.190800
     18 C17          2.0340     0.3230    -0.7130 c3         1 GA8       0.128300
     19 O18          2.2220     1.6900    -1.1500 oh         1 GA8      -0.653000
     20 C19          0.6160    -0.1730    -1.1330 c3         1 GA8       0.080700
     21 N20         -0.4160     0.6920    -0.5400 ns         1 GA8      -0.486900
     22 C21         -1.6230     0.2540    -0.0380 c          1 GA8       0.620700
     23 O22         -1.8720    -0.9360     0.0990 o          1 GA8      -0.588100
     24 C23         -2.6100     1.3280     0.3520 ca         1 GA8      -0.158600
     25 C24         -2.2140     2.6560     0.6100 ca         1 GA8      -0.070000
     26 C25         -3.1710     3.6150     0.9730 ca         1 GA8      -0.114000
     27 C26         -4.5320     3.2800     1.0760 ca         1 GA8      -0.062000
     28 C27         -4.9570     1.9480     0.8190 ca         1 GA8      -0.119300
     29 C28         -3.9750     0.9940     0.4550 ca         1 GA8      -0.036000
     30 S42         -5.6450     4.6040     1.5550 ss         1 GA8      -0.167000
     31 C43         -7.3060     3.8530     1.3490 c6         1 GA8       0.047600
     32 C44         -7.3170     2.3900     1.8040 c6         1 GA8      -0.097400
     33 C45         -6.4490     1.5250     0.8680 c6         1 GA8       0.173000
     34 N46         -6.5970     0.1180     1.2590 ns         1 GA8      -0.504900
     35 C47         -6.7270    -0.9330     0.3980 c          1 GA8       0.655100
     36 O48         -6.8100    -0.8250    -0.8140 o          1 GA8      -0.555000
     37 O49         -6.6380    -2.0890     1.1230 os         1 GA8      -0.476100
     38 C50         -6.5870    -3.3930     0.4970 c3         1 GA8       0.226000
     39 C53         -5.3240    -3.4890    -0.4000 c3         1 GA8      -0.109433
     40 C51         -6.4680    -4.3780     1.6810 c3         1 GA8      -0.109433
     41 C52         -7.9050    -3.6530    -0.2770 c3         1 GA8      -0.109433
     42 C32          0.4010    -0.3010    -2.6710 c3         1 GA8      -0.054100
     43 C33         -1.9940     0.1660    -3.4090 ca         1 GA8      -0.100000
     44 C34         -3.2990    -0.2630    -3.7080 ca         1 GA8      -0.106500
     45 C35         -3.6220    -1.6290    -3.6460 ca         1 GA8      -0.105000
     46 C36         -2.6380    -2.5660    -3.2870 ca         1 GA8      -0.106500
     47 C37         -1.3340    -2.1370    -2.9860 ca         1 GA8      -0.100000
     48 C38         -1.0040    -0.7680    -3.0410 ca         1 GA8      -0.089300
     49 H1          11.1940     0.2070     2.5540 h1         1 GA8       0.046367
     50 H2          10.9530    -1.1090     3.7350 h1         1 GA8       0.046367
     51 H3          12.3550    -1.1330     2.6450 h1         1 GA8       0.046367
     52 H4           8.8820     0.0020     3.2030 ha         1 GA8       0.128000
     53 H5           6.4490     0.1780     2.8940 ha         1 GA8       0.135000
     54 H6           6.6390    -2.7270    -0.3200 ha         1 GA8       0.135000
     55 H7           9.0980    -2.9000     0.0020 ha         1 GA8       0.128000
     56 H8           4.6480     1.6110    -0.2900 h1         1 GA8       0.053700
     57 H9           6.1850     0.7790    -0.1960 h1         1 GA8       0.053700
     58 H10          4.6440     1.2520    -2.7730 hc         1 GA8       0.044700
     59 H11          7.2250     2.5310    -1.7420 hc         1 GA8       0.036200
     60 H12          6.4670     2.8220    -3.3230 hc         1 GA8       0.036200
     61 H13          5.6350     3.3190    -1.8380 hc         1 GA8       0.036200
     62 H14          7.3840    -0.0710    -2.3550 hc         1 GA8       0.036200
     63 H15          5.9110    -0.8860    -2.9190 hc         1 GA8       0.036200
     64 H16          6.6710     0.3560    -3.9260 hc         1 GA8       0.036200
     65 H17          3.2960    -0.4620    -2.3020 h1         1 GA8       0.068200
     66 H18          2.8310    -1.6510    -1.1230 h1         1 GA8       0.068200
     67 H19          2.0470     0.2910     0.3840 h1         1 GA8       0.099700
     68 H20          2.2640     1.6870    -2.1290 ho         1 GA8       0.437000
     69 H21          0.4950    -1.1790    -0.7060 h1         1 GA8       0.099700
     70 H22         -0.2840     1.6920    -0.6070 hn         1 GA8       0.316500
     71 H23         -1.1700     2.9550     0.5550 ha         1 GA8       0.124000
     72 H24         -2.8510     4.6340     1.1770 ha         1 GA8       0.127000
     73 H25         -4.2650    -0.0270     0.2250 ha         1 GA8       0.142000
     74 H26         -8.0230     4.4460     1.9350 h1         1 GA8       0.077200
     75 H27         -7.5880     3.9240     0.2890 h1         1 GA8       0.077200
     76 H28         -6.9600     2.3140     2.8400 hc         1 GA8       0.062700
     77 H29         -8.3500     2.0190     1.7950 hc         1 GA8       0.062700
     78 H30         -6.8510     1.6350    -0.1510 h1         1 GA8       0.091700
     79 H31         -6.5040    -0.1290     2.2340 hn         1 GA8       0.330500
     80 H32         -4.4370    -3.1280     0.1350 hc         1 GA8       0.050033
     81 H33         -5.1420    -4.5300    -0.6920 hc         1 GA8       0.050033
     82 H34         -5.4300    -2.9090    -1.3220 hc         1 GA8       0.050033
     83 H35         -7.3330    -4.2900     2.3500 hc         1 GA8       0.050033
     84 H36         -6.4190    -5.4130     1.3240 hc         1 GA8       0.050033
     85 H37         -5.5620    -4.1770     2.2650 hc         1 GA8       0.050033
     86 H38         -7.9610    -3.0670    -1.2010 hc         1 GA8       0.050033
     87 H39         -7.9780    -4.7100    -0.5610 hc         1 GA8       0.050033
     88 H40         -8.7750    -3.4090     0.3420 hc         1 GA8       0.050033
     89 H41          0.6050     0.6640    -3.1490 hc         1 GA8       0.044700
     90 H42          1.1330    -1.0050    -3.0850 hc         1 GA8       0.044700
     91 H44         -4.0600     0.4630    -3.9830 ha         1 GA8       0.114000
     92 H45         -4.6330    -1.9600    -3.8740 ha         1 GA8       0.122000
     93 H46         -2.8880    -3.6240    -3.2350 ha         1 GA8       0.114000
     94 H47         -0.5820    -2.8680    -2.6970 ha         1 GA8       0.107000
     95 H43         -1.7560     1.2260    -3.4490 ha         1 GA8       0.107000
@<TRIPOS>BOND
     1     1     2 1   
     2     1    49 1   
     3     1    50 1   
     4     1    51 1   
     5     2     3 1   
     6     3     4 ar  
     7     3     8 ar  
     8     4     5 ar  
     9     4    52 1   
    10     5     6 ar  
    11     5    53 1   
    12     6     7 ar  
    13     6     9 1   
    14     7     8 ar  
    15     7    54 1   
    16     8    55 1   
    17     9    10 2   
    18     9    11 2   
    19     9    12 1   
    20    12    13 1   
    21    12    17 1   
    22    13    14 1   
    23    13    56 1   
    24    13    57 1   
    25    14    15 1   
    26    14    16 1   
    27    14    58 1   
    28    15    59 1   
    29    15    60 1   
    30    15    61 1   
    31    16    62 1   
    32    16    63 1   
    33    16    64 1   
    34    17    18 1   
    35    17    65 1   
    36    17    66 1   
    37    18    19 1   
    38    18    20 1   
    39    18    67 1   
    40    19    68 1   
    41    20    21 1   
    42    20    42 1   
    43    20    69 1   
    44    21    22 1   
    45    21    70 1   
    46    22    23 2   
    47    22    24 1   
    48    24    25 ar  
    49    24    29 ar  
    50    25    26 ar  
    51    25    71 1   
    52    26    27 ar  
    53    26    72 1   
    54    27    28 ar  
    55    27    30 1   
    56    28    29 ar  
    57    28    33 1   
    58    29    73 1   
    59    30    31 1   
    60    31    32 1   
    61    31    74 1   
    62    31    75 1   
    63    32    33 1   
    64    32    76 1   
    65    32    77 1   
    66    33    34 1   
    67    33    78 1   
    68    34    35 1   
    69    34    79 1   
    70    35    36 2   
    71    35    37 1   
    72    37    38 1   
    73    38    39 1   
    74    38    40 1   
    75    38    41 1   
    76    39    80 1   
    77    39    81 1   
    78    39    82 1   
    79    40    83 1   
    80    40    84 1   
    81    40    85 1   
    82    41    86 1   
    83    41    87 1   
    84    41    88 1   
    85    42    48 1   
    86    42    89 1   
    87    42    90 1   
    88    43    44 ar  
    89    43    48 ar  
    90    43    95 1   
    91    44    45 ar  
    92    44    91 1   
    93    45    46 ar  
    94    45    92 1   
    95    46    47 ar  
    96    46    93 1   
    97    47    48 ar  
    98    47    94 1   
@<TRIPOS>SUBSTRUCTURE
     1 GA8         1 TEMP              0 ****  ****    0 ROOT
