@<TRIPOS>MOLECULE
GA8
   95    98     1     0     0
SMALL
abcg2


@<TRIPOS>ATOM
      1 C40         11.6470    -1.3310     1.2430 c3         1 GA8       0.145900
      2 O39         10.4910    -2.1020     0.9660 os         1 GA8      -0.335100
      3 C2           9.2880    -1.5380     1.1120 ca         1 GA8       0.196100
      4 C3           9.0820    -0.2290     1.5440 ca         1 GA8      -0.200000
      5 C4           7.7900     0.2640     1.6590 ca         1 GA8       0.028500
      6 C5           6.7100    -0.5410     1.3400 ca         1 GA8      -0.324500
      7 C6           6.9080    -1.8540     0.9150 ca         1 GA8       0.028500
      8 C7           8.1870    -2.3480     0.8030 ca         1 GA8      -0.200000
      9 S8           5.0640     0.0780     1.4420 sy         1 GA8       1.180600
     10 O9           4.1950    -0.9700     1.9640 o          1 GA8      -0.544500
     11 O10          5.1130     1.3510     2.1500 o          1 GA8      -0.544500
     12 N11          4.6440     0.2880    -0.1370 n3         1 GA8      -0.773500
     13 C12          5.3340     1.3460    -0.8750 c3         1 GA8       0.221800
     14 C13          5.7560     0.9240    -2.2820 c3         1 GA8      -0.070700
     15 C14          6.4680     2.0970    -2.9470 c3         1 GA8      -0.088100
     16 C15          6.6350    -0.3190    -2.2560 c3         1 GA8      -0.088100
     17 C16          3.3240    -0.1470    -0.5710 c3         1 GA8       0.190800
     18 C17          2.1560     0.6790    -0.0350 c3         1 GA8       0.128300
     19 O18          2.1910     2.0210    -0.4710 oh         1 GA8      -0.653000
     20 C19          0.8080     0.0110    -0.3410 c3         1 GA8       0.080700
     21 N20         -0.2490     0.8230     0.2180 ns         1 GA8      -0.486900
     22 C21         -1.3640     0.3010     0.7700 c          1 GA8       0.620700
     23 O22         -1.4880    -0.8780     1.0610 o          1 GA8      -0.588100
     24 C23         -2.4740     1.2730     0.9870 ca         1 GA8      -0.158600
     25 C24         -2.2720     2.5850     1.4010 ca         1 GA8      -0.070000
     26 C25         -3.3550     3.4270     1.5610 ca         1 GA8      -0.114000
     27 C26         -4.6530     2.9910     1.2850 ca         1 GA8      -0.062000
     28 C27         -4.8710     1.6730     0.8640 ca         1 GA8      -0.119300
     29 C28         -3.7680     0.8360     0.7430 ca         1 GA8      -0.036000
     30 S42         -5.9180     4.1850     1.5440 ss         1 GA8      -0.167000
     31 C43         -7.3720     3.3650     0.8470 c6         1 GA8       0.047600
     32 C44         -7.3920     1.8860     1.1660 c6         1 GA8      -0.097400
     33 C45         -6.2450     1.1460     0.4820 c6         1 GA8       0.173000
     34 N46         -6.3440    -0.2720     0.7260 ns         1 GA8      -0.504900
     35 C47         -6.7570    -1.1590    -0.2070 c          1 GA8       0.655100
     36 O48         -7.0070    -0.8780    -1.3620 o          1 GA8      -0.555000
     37 O49         -6.8360    -2.3740     0.3330 os         1 GA8      -0.476100
     38 C50         -7.3270    -3.5330    -0.3950 c3         1 GA8       0.226000
     39 C53         -6.4000    -3.8890    -1.5500 c3         1 GA8      -0.109433
     40 C51         -7.2890    -4.6340     0.6580 c3         1 GA8      -0.109433
     41 C52         -8.7620    -3.3170    -0.8620 c3         1 GA8      -0.109433
     42 C32          0.5740    -0.2330    -1.8470 c3         1 GA8      -0.054100
     43 C33         -1.8270     0.2510    -2.4130 ca         1 GA8      -0.100000
     44 C34         -3.1470    -0.1450    -2.5800 ca         1 GA8      -0.106500
     45 C35         -3.4890    -1.4860    -2.4770 ca         1 GA8      -0.105000
     46 C36         -2.5000    -2.4270    -2.2180 ca         1 GA8      -0.106500
     47 C37         -1.1830    -2.0250    -2.0450 ca         1 GA8      -0.100000
     48 C38         -0.8310    -0.6810    -2.1330 ca         1 GA8      -0.089300
     49 H1          11.7080    -0.4500     0.6000 h1         1 GA8       0.046367
     50 H2          11.6800    -1.0120     2.2870 h1         1 GA8       0.046367
     51 H3          12.4990    -1.9740     1.0430 h1         1 GA8       0.046367
     52 H4           9.9080     0.4200     1.7980 ha         1 GA8       0.128000
     53 H5           7.6440     1.2810     1.9950 ha         1 GA8       0.135000
     54 H6           6.0700    -2.4910     0.6660 ha         1 GA8       0.135000
     55 H7           8.3510    -3.3670     0.4760 ha         1 GA8       0.128000
     56 H8           4.7210     2.2490    -0.9140 h1         1 GA8       0.053700
     57 H9           6.2410     1.6190    -0.3290 h1         1 GA8       0.053700
     58 H10          4.8610     0.7030    -2.8750 hc         1 GA8       0.044700
     59 H11          7.3770     2.3640    -2.4030 hc         1 GA8       0.036200
     60 H12          6.7540     1.8490    -3.9690 hc         1 GA8       0.036200
     61 H13          5.8320     2.9840    -2.9870 hc         1 GA8       0.036200
     62 H14          7.5190    -0.1610    -1.6310 hc         1 GA8       0.036200
     63 H15          6.1010    -1.1820    -1.8570 hc         1 GA8       0.036200
     64 H16          6.9740    -0.5750    -3.2600 hc         1 GA8       0.036200
     65 H17          3.3420    -0.1230    -1.6630 h1         1 GA8       0.068200
     66 H18          3.1810    -1.1950    -0.3050 h1         1 GA8       0.068200
     67 H19          2.2330     0.7290     1.0550 h1         1 GA8       0.099700
     68 H20          2.2280     2.0470    -1.4330 ho         1 GA8       0.437000
     69 H21          0.7920    -0.9490     0.1770 h1         1 GA8       0.099700
     70 H22         -0.2810     1.7810    -0.0970 hn         1 GA8       0.316500
     71 H23         -1.2790     2.9580     1.6220 ha         1 GA8       0.124000
     72 H24         -3.1910     4.4440     1.8980 ha         1 GA8       0.127000
     73 H25         -3.9190    -0.1860     0.4230 ha         1 GA8       0.142000
     74 H26         -8.2290     3.8730     1.2880 h1         1 GA8       0.077200
     75 H27         -7.4060     3.5340    -0.2310 h1         1 GA8       0.077200
     76 H28         -7.3580     1.7290     2.2470 hc         1 GA8       0.062700
     77 H29         -8.3330     1.4650     0.8050 hc         1 GA8       0.062700
     78 H30         -6.3580     1.2840    -0.5970 h1         1 GA8       0.091700
     79 H31         -6.2250    -0.5950     1.6750 hn         1 GA8       0.330500
     80 H32         -5.3660    -3.9720    -1.2080 hc         1 GA8       0.050033
     81 H33         -6.6900    -4.8570    -1.9580 hc         1 GA8       0.050033
     82 H34         -6.4440    -3.1620    -2.3580 hc         1 GA8       0.050033
     83 H35         -7.9300    -4.3910     1.5070 hc         1 GA8       0.050033
     84 H36         -7.6450    -5.5700     0.2290 hc         1 GA8       0.050033
     85 H37         -6.2760    -4.7990     1.0270 hc         1 GA8       0.050033
     86 H38         -8.8370    -2.5860    -1.6630 hc         1 GA8       0.050033
     87 H39         -9.1620    -4.2610    -1.2350 hc         1 GA8       0.050033
     88 H40         -9.3960    -2.9950    -0.0340 hc         1 GA8       0.050033
     89 H41          0.7820     0.6830    -2.4080 hc         1 GA8       0.044700
     90 H42          1.2830    -0.9870    -2.1970 hc         1 GA8       0.044700
     91 H44         -3.9110     0.5960    -2.7810 ha         1 GA8       0.114000
     92 H45         -4.5190    -1.7910    -2.5980 ha         1 GA8       0.122000
     93 H46         -2.7560    -3.4770    -2.1460 ha         1 GA8       0.114000
     94 H47         -0.4200    -2.7640    -1.8310 ha         1 GA8       0.107000
     95 H43         -1.5710     1.3010    -2.4960 ha         1 GA8       0.107000
@<TRIPOS>BOND
     1     1     2 1   
     2     1    49 1   
     3     1    50 1   
     4     1    51 1   
     5     2     3 1   
     6     3     4 ar  
     7     3     8 ar  
     8     4     5 ar  
     9     4    52 1   
    10     5     6 ar  
    11     5    53 1   
    12     6     7 ar  
    13     6     9 1   
    14     7     8 ar  
    15     7    54 1   
    16     8    55 1   
    17     9    10 2   
    18     9    11 2   
    19     9    12 1   
    20    12    13 1   
    21    12    17 1   
    22    13    14 1   
    23    13    56 1   
    24    13    57 1   
    25    14    15 1   
    26    14    16 1   
    27    14    58 1   
    28    15    59 1   
    29    15    60 1   
    30    15    61 1   
    31    16    62 1   
    32    16    63 1   
    33    16    64 1   
    34    17    18 1   
    35    17    65 1   
    36    17    66 1   
    37    18    19 1   
    38    18    20 1   
    39    18    67 1   
    40    19    68 1   
    41    20    21 1   
    42    20    42 1   
    43    20    69 1   
    44    21    22 1   
    45    21    70 1   
    46    22    23 2   
    47    22    24 1   
    48    24    25 ar  
    49    24    29 ar  
    50    25    26 ar  
    51    25    71 1   
    52    26    27 ar  
    53    26    72 1   
    54    27    28 ar  
    55    27    30 1   
    56    28    29 ar  
    57    28    33 1   
    58    29    73 1   
    59    30    31 1   
    60    31    32 1   
    61    31    74 1   
    62    31    75 1   
    63    32    33 1   
    64    32    76 1   
    65    32    77 1   
    66    33    34 1   
    67    33    78 1   
    68    34    35 1   
    69    34    79 1   
    70    35    36 2   
    71    35    37 1   
    72    37    38 1   
    73    38    39 1   
    74    38    40 1   
    75    38    41 1   
    76    39    80 1   
    77    39    81 1   
    78    39    82 1   
    79    40    83 1   
    80    40    84 1   
    81    40    85 1   
    82    41    86 1   
    83    41    87 1   
    84    41    88 1   
    85    42    48 1   
    86    42    89 1   
    87    42    90 1   
    88    43    44 ar  
    89    43    48 ar  
    90    43    95 1   
    91    44    45 ar  
    92    44    91 1   
    93    45    46 ar  
    94    45    92 1   
    95    46    47 ar  
    96    46    93 1   
    97    47    48 ar  
    98    47    94 1   
@<TRIPOS>SUBSTRUCTURE
     1 GA8         1 TEMP              0 ****  ****    0 ROOT
