@<TRIPOS>MOLECULE
GA9
   44    48     1     0     0
SMALL
bcc


@<TRIPOS>ATOM
      1 C1          -0.1380    -1.4850     2.3640 c          1 GA9       0.764200
      2 C2          -1.0230    -2.2780     1.4940 ca         1 GA9      -0.183600
      3 C3          -1.8130    -3.2600     2.0360 ca         1 GA9      -0.037000
      4 C4          -2.5350    -4.1270     1.2050 ca         1 GA9      -0.138000
      5 C5          -2.4200    -4.0210    -0.1550 ca         1 GA9       0.067400
      6 C6          -1.6180    -3.0240    -0.7660 ca         1 GA9      -0.044000
      7 C7          -1.4640    -2.8810    -2.1630 ca         1 GA9      -0.089000
      8 C8          -0.6790    -1.8810    -2.6690 ca         1 GA9      -0.131000
      9 C9          -0.0420    -0.9620    -1.8150 ca         1 GA9      -0.081000
     10 C10         -0.1810    -1.0660    -0.4580 ca         1 GA9      -0.121300
     11 C11         -0.9410    -2.1220     0.0910 ca         1 GA9       0.011000
     12 C12          0.3330    -0.0120     0.4950 c6         1 GA9       0.350700
     13 C13         -0.7270     1.0510     0.7660 ca         1 GA9      -0.147800
     14 C14         -1.8470     1.2120    -0.0360 ca         1 GA9      -0.035500
     15 C15         -2.7710     2.2100     0.2350 ca         1 GA9      -0.072900
     16 C16         -2.6050     3.0740     1.3150 ca         1 GA9       0.177100
     17 C17         -1.4770     2.9070     2.1190 ca         1 GA9      -0.233500
     18 C18         -0.5560     1.9160     1.8470 ca         1 GA9      -0.047000
     19 C19          1.6350     0.5870    -0.0070 ca         1 GA9      -0.147800
     20 C20          2.7750    -0.2130    -0.0260 ca         1 GA9      -0.035500
     21 C21          3.9680     0.2800    -0.5160 ca         1 GA9      -0.072900
     22 C22          4.0630     1.5850    -1.0100 ca         1 GA9       0.177100
     23 C23          2.9180     2.3730    -0.9980 ca         1 GA9      -0.233500
     24 C24          1.7220     1.8800    -0.5020 ca         1 GA9      -0.047000
     25 O1           0.6680    -0.6020     1.7670 os         1 GA9      -0.422900
     26 O2          -0.0360    -1.6480     3.5520 o          1 GA9      -0.565500
     27 O4           5.2440     2.0110    -1.4690 oh         1 GA9      -0.469100
     28 O3          -3.5250     4.0180     1.5350 oh         1 GA9      -0.469100
     29 BR1         -4.2840     2.4060    -0.8680 br         1 GA9      -0.070600
     30 BR2          5.5020    -0.8120    -0.5260 br         1 GA9      -0.070600
     31 CL3         -3.2840    -5.1390    -1.1450 cl         1 GA9      -0.093400
     32 H3          -1.8720    -3.3910     3.1070 ha         1 GA9       0.161000
     33 H4          -3.1570    -4.8950     1.6440 ha         1 GA9       0.156000
     34 H7          -1.9640    -3.5620    -2.8370 ha         1 GA9       0.150000
     35 H8          -0.5570    -1.7810    -3.7390 ha         1 GA9       0.142000
     36 H9           0.5370    -0.1570    -2.2480 ha         1 GA9       0.146000
     37 H14         -2.0110     0.5620    -0.8860 ha         1 GA9       0.158000
     38 H17         -1.3240     3.5650     2.9660 ha         1 GA9       0.138000
     39 H18          0.3080     1.8250     2.4930 ha         1 GA9       0.150500
     40 H20          2.7310    -1.2330     0.3360 ha         1 GA9       0.158000
     41 H23          2.9630     3.3870    -1.3790 ha         1 GA9       0.138000
     42 H24          0.8560     2.5260    -0.5110 ha         1 GA9       0.150500
     43 HO4          5.1760     2.9210    -1.7830 ho         1 GA9       0.433000
     44 HO3         -3.2910     4.5430     2.3100 ho         1 GA9       0.433000
@<TRIPOS>BOND
     1     1     2 1   
     2     1    25 1   
     3     1    26 2   
     4     2     3 ar  
     5     2    11 ar  
     6     3     4 ar  
     7     3    32 1   
     8     4     5 ar  
     9     4    33 1   
    10     5     6 ar  
    11     5    31 1   
    12     6     7 ar  
    13     6    11 ar  
    14     7     8 ar  
    15     7    34 1   
    16     8     9 ar  
    17     8    35 1   
    18     9    10 ar  
    19     9    36 1   
    20    10    11 ar  
    21    10    12 1   
    22    12    13 1   
    23    12    19 1   
    24    12    25 1   
    25    13    14 ar  
    26    13    18 ar  
    27    14    15 ar  
    28    14    37 1   
    29    15    16 ar  
    30    15    29 1   
    31    16    17 ar  
    32    16    28 1   
    33    17    18 ar  
    34    17    38 1   
    35    18    39 1   
    36    19    20 ar  
    37    19    24 ar  
    38    20    21 ar  
    39    20    40 1   
    40    21    22 ar  
    41    21    30 1   
    42    22    23 ar  
    43    22    27 1   
    44    23    24 ar  
    45    23    41 1   
    46    24    42 1   
    47    27    43 1   
    48    28    44 1   
@<TRIPOS>SUBSTRUCTURE
     1 GA9         1 TEMP              0 ****  ****    0 ROOT
