@<TRIPOS>MOLECULE
GA9
   44    48     1     0     0
SMALL
No Charge or Current Charge


@<TRIPOS>ATOM
      1 C1          -0.2030    -1.4980     2.3890 c          1 GA9       0.688700
      2 C2          -1.0530    -2.3280     1.4640 ca         1 GA9      -0.183600
      3 C3          -1.8610    -3.3580     1.9910 ca         1 GA9      -0.019000
      4 C4          -2.5510    -4.2250     1.1310 ca         1 GA9      -0.120000
      5 C5          -2.4260    -4.0930    -0.2590 ca         1 GA9       0.159000
      6 C6          -1.6230    -3.0630    -0.8040 ca         1 GA9      -0.044000
      7 C7          -1.4710    -2.9070    -2.1990 ca         1 GA9      -0.071000
      8 C8          -0.6850    -1.8640    -2.7110 ca         1 GA9      -0.113000
      9 C9          -0.0660    -0.9550    -1.8420 ca         1 GA9      -0.063000
     10 C10         -0.2020    -1.0970    -0.4440 ca         1 GA9      -0.121300
     11 C11         -0.9590    -2.1660     0.0700 ca         1 GA9       0.011000
     12 C12          0.3290    -0.0120     0.5110 c6         1 GA9       0.373900
     13 C13         -0.7230     1.0890     0.7940 ca         1 GA9      -0.147800
     14 C14         -1.9370     1.1780     0.0720 ca         1 GA9      -0.017500
     15 C15         -2.8670     2.1920     0.3610 ca         1 GA9      -0.072900
     16 C16         -2.5980     3.1320     1.3730 ca         1 GA9       0.177100
     17 C17         -1.3980     3.0540     2.0930 ca         1 GA9      -0.215500
     18 C18         -0.4670     2.0400     1.8070 ca         1 GA9      -0.029000
     19 C19          1.6610     0.5750    -0.0090 ca         1 GA9      -0.147800
     20 C20          2.8480    -0.1820     0.1090 ca         1 GA9      -0.017500
     21 C21          4.0690     0.3190    -0.3740 ca         1 GA9      -0.072900
     22 C22          4.1180     1.5830    -0.9900 ca         1 GA9       0.177100
     23 C23          2.9430     2.3370    -1.1250 ca         1 GA9      -0.215500
     24 C24          1.7200     1.8380    -0.6430 ca         1 GA9      -0.029000
     25 O1           0.6220    -0.5870     1.7940 os         1 GA9      -0.446100
     26 O2          -0.1900    -1.6680     3.6000 o          1 GA9      -0.490000
     27 O4           5.2970     2.0810    -1.4640 oh         1 GA9      -0.508100
     28 O3          -3.4940     4.1200     1.6600 oh         1 GA9      -0.508100
     29 Br1         -4.4990     2.2670    -0.6470 br         1 GA9      -0.070600
     30 Br2          5.6520    -0.7490    -0.1840 br         1 GA9      -0.070600
     31 Cl3         -3.2990    -5.2400    -1.2790 cl         1 GA9      -0.185000
     32 H3          -1.9400    -3.5040     3.0670 ha         1 GA9       0.143000
     33 H4          -3.1670    -5.0190     1.5450 ha         1 GA9       0.138000
     34 H7          -1.9570    -3.5820    -2.8980 ha         1 GA9       0.132000
     35 H8          -0.5780    -1.7450    -3.7870 ha         1 GA9       0.124000
     36 H9           0.4950    -0.1250    -2.2660 ha         1 GA9       0.128000
     37 H14         -2.1780     0.4710    -0.7180 ha         1 GA9       0.140000
     38 H17         -1.1760     3.7740     2.8760 ha         1 GA9       0.120000
     39 H18          0.4620     1.9950     2.3730 ha         1 GA9       0.132500
     40 H20          2.8250    -1.1660     0.5740 ha         1 GA9       0.140000
     41 H23          2.9660     3.3120    -1.6060 ha         1 GA9       0.120000
     42 H24          0.8220     2.4390    -0.7740 ha         1 GA9       0.132500
     43 HO4          5.1240     2.9630    -1.8530 ho         1 GA9       0.472000
     44 HO3         -3.1270     4.6660     2.3870 ho         1 GA9       0.472000
@<TRIPOS>BOND
     1     1     2 1   
     2     1    25 1   
     3     1    26 2   
     4     2     3 ar  
     5     2    11 ar  
     6     3     4 ar  
     7     3    32 1   
     8     4     5 ar  
     9     4    33 1   
    10     5     6 ar  
    11     5    31 1   
    12     6     7 ar  
    13     6    11 ar  
    14     7     8 ar  
    15     7    34 1   
    16     8     9 ar  
    17     8    35 1   
    18     9    10 ar  
    19     9    36 1   
    20    10    11 ar  
    21    10    12 1   
    22    12    13 1   
    23    12    19 1   
    24    12    25 1   
    25    13    14 ar  
    26    13    18 ar  
    27    14    15 ar  
    28    14    37 1   
    29    15    16 ar  
    30    15    29 1   
    31    16    17 ar  
    32    16    28 1   
    33    17    18 ar  
    34    17    38 1   
    35    18    39 1   
    36    19    20 ar  
    37    19    24 ar  
    38    20    21 ar  
    39    20    40 1   
    40    21    22 ar  
    41    21    30 1   
    42    22    23 ar  
    43    22    27 1   
    44    23    24 ar  
    45    23    41 1   
    46    24    42 1   
    47    27    43 1   
    48    28    44 1   
@<TRIPOS>SUBSTRUCTURE
     1 GA9         1 TEMP              0 ****  ****    0 ROOT
