@<TRIPOS>MOLECULE
GAA
   36    37     1     0     0
SMALL
No Charge or Current Charge


@<TRIPOS>ATOM
      1 C1          -1.3570    -0.5370     0.9920 c6         1 GAA       0.363300
      2 C2          -2.6330    -1.3110     0.4970 c6         1 GAA       0.116300
      3 C3          -3.0170    -0.8440    -0.9420 c6         1 GAA       0.139300
      4 C4          -3.1630     0.7050    -1.0160 c6         1 GAA       0.147300
      5 C5          -1.8540     1.3590    -0.4650 c6         1 GAA       0.169300
      6 C6          -1.9250     2.9220    -0.4510 c3         1 GAA       0.171600
      7 C7           1.0830    -0.5030     0.5980 ca         1 GAA       0.135100
      8 C8           2.1470    -0.8790    -0.2390 ca         1 GAA      -0.086000
      9 C9           3.4780    -0.4970     0.0580 ca         1 GAA      -0.147200
     10 C10          3.7240     0.2740     1.2180 ca         1 GAA      -0.082000
     11 C11          2.6610     0.6490     2.0580 ca         1 GAA      -0.089000
     12 C12          1.3450     0.2640     1.7540 ca         1 GAA      -0.138000
     13 N1           4.6080    -0.9020    -0.8440 no         1 GAA       0.693200
     14 O1          -0.1850    -0.9240     0.2400 os         1 GAA      -0.364100
     15 O2          -2.4740    -2.7560     0.5100 oh         1 GAA      -0.706000
     16 O3          -4.2420    -1.4840    -1.3510 oh         1 GAA      -0.671000
     17 O4          -4.3400     1.1030    -0.2800 oh         1 GAA      -0.717000
     18 O5          -1.5660     0.8910     0.8820 os         1 GAA      -0.446000
     19 O6          -0.7040     3.5460     0.0010 oh         1 GAA      -0.717000
     20 O7           5.7550    -0.5450    -0.5430 o          1 GAA      -0.398500
     21 O8           4.3420    -1.5750    -1.8490 o          1 GAA      -0.398500
     22 H1          -1.1980    -0.7940     2.0500 h2         1 GAA       0.078700
     23 H2          -3.4540    -1.0300     1.1750 h1         1 GAA       0.068700
     24 H3          -2.2010    -1.1380    -1.6210 h1         1 GAA       0.070700
     25 H4          -3.2710     0.9900    -2.0730 h1         1 GAA       0.056700
     26 H5          -1.0180     1.0790    -1.1230 h1         1 GAA       0.068700
     27 H61         -2.7610     3.2240     0.1940 h1         1 GAA       0.039700
     28 H62         -2.1630     3.2600    -1.4700 h1         1 GAA       0.039700
     29 H8           1.9240    -1.4730    -1.1230 ha         1 GAA       0.164000
     30 H10          4.7340     0.5870     1.4780 ha         1 GAA       0.152000
     31 H11          2.8600     1.2420     2.9490 ha         1 GAA       0.127000
     32 H12          0.5470     0.5720     2.4240 ha         1 GAA       0.144000
     33 HO2         -2.2290    -3.0240     1.4270 ho         1 GAA       0.513000
     34 HO3         -4.1410    -2.4230    -1.0650 ho         1 GAA       0.470000
     35 HO4         -5.0040     0.4000    -0.4870 ho         1 GAA       0.524000
     36 HO6         -0.8810     4.5140     0.0590 ho         1 GAA       0.507000
@<TRIPOS>BOND
     1     1     2 1   
     2     1    14 1   
     3     1    18 1   
     4     1    22 1   
     5     2     3 1   
     6     2    15 1   
     7     2    23 1   
     8     3     4 1   
     9     3    16 1   
    10     3    24 1   
    11     4     5 1   
    12     4    17 1   
    13     4    25 1   
    14     5     6 1   
    15     5    18 1   
    16     5    26 1   
    17     6    19 1   
    18     6    27 1   
    19     6    28 1   
    20     7     8 ar  
    21     7    12 ar  
    22     7    14 1   
    23     8     9 ar  
    24     8    29 1   
    25     9    10 ar  
    26     9    13 1   
    27    10    11 ar  
    28    10    30 1   
    29    11    12 ar  
    30    11    31 1   
    31    12    32 1   
    32    13    20 1   
    33    13    21 1   
    34    15    33 1   
    35    16    34 1   
    36    17    35 1   
    37    19    36 1   
@<TRIPOS>SUBSTRUCTURE
     1 GAA         1 TEMP              0 ****  ****    0 ROOT
