@<TRIPOS>MOLECULE
GAA
   36    37     1     0     0
SMALL
bcc


@<TRIPOS>ATOM
      1 C1          -1.2580    -0.4160     0.9050 c6         1 GAA       0.316900
      2 C2          -2.4260    -1.2720     0.4030 c6         1 GAA       0.093100
      3 C3          -2.8720    -0.8020    -0.9760 c6         1 GAA       0.116100
      4 C4          -3.1790     0.6930    -0.9400 c6         1 GAA       0.124100
      5 C5          -1.9650     1.4370    -0.4020 c6         1 GAA       0.146100
      6 C6          -2.2120     2.9220    -0.2510 c3         1 GAA       0.148400
      7 C7           1.0970    -0.3780     0.5000 ca         1 GAA       0.135100
      8 C8           2.1390    -0.9780    -0.2020 ca         1 GAA      -0.104000
      9 C9           3.4430    -0.6780     0.1480 ca         1 GAA      -0.147200
     10 C10          3.7550     0.1950     1.1800 ca         1 GAA      -0.100000
     11 C11          2.7050     0.7830     1.8610 ca         1 GAA      -0.107000
     12 C12          1.3830     0.5170     1.5300 ca         1 GAA      -0.156000
     13 N1           4.5250    -1.3130    -0.5950 no         1 GAA       0.313200
     14 O1          -0.1420    -0.7250     0.1000 os         1 GAA      -0.340900
     15 O2          -2.0910    -2.6320     0.3230 oh         1 GAA      -0.583800
     16 O3          -4.0390    -1.4660    -1.3990 oh         1 GAA      -0.608800
     17 O4          -4.2900     0.9780    -0.1260 oh         1 GAA      -0.594800
     18 O5          -1.5740     0.9330     0.8710 os         1 GAA      -0.399600
     19 O6          -0.9860     3.5530     0.0300 oh         1 GAA      -0.594800
     20 O7           5.6600    -1.0440    -0.2830 o          1 GAA      -0.208500
     21 O8           4.2340    -2.0750    -1.4860 o          1 GAA      -0.208500
     22 H1          -1.0380    -0.6520     1.9530 h2         1 GAA       0.078700
     23 H2          -3.2510    -1.1080     1.1080 h1         1 GAA       0.068700
     24 H3          -2.0550    -0.9600    -1.6940 h1         1 GAA       0.070700
     25 H4          -3.3460     1.0360    -1.9720 h1         1 GAA       0.056700
     26 H5          -1.1540     1.3000    -1.1300 h1         1 GAA       0.068700
     27 H61         -2.9510     3.0990     0.5390 h1         1 GAA       0.039700
     28 H62         -2.6500     3.2850    -1.1900 h1         1 GAA       0.039700
     29 H8           1.9130    -1.6670    -1.0030 ha         1 GAA       0.182000
     30 H10          4.7770     0.4160     1.4480 ha         1 GAA       0.170000
     31 H11          2.9140     1.4740     2.6660 ha         1 GAA       0.145000
     32 H12          0.5990     1.0270     2.0700 ha         1 GAA       0.162000
     33 HO2         -2.1640    -3.0230     1.1990 ho         1 GAA       0.414000
     34 HO3         -3.9020    -2.4150    -1.3080 ho         1 GAA       0.431000
     35 HO4         -5.0140     0.4060    -0.4000 ho         1 GAA       0.425000
     36 HO6         -1.1560     4.4920     0.1450 ho         1 GAA       0.408000
@<TRIPOS>BOND
     1     1     2 1   
     2     1    14 1   
     3     1    18 1   
     4     1    22 1   
     5     2     3 1   
     6     2    15 1   
     7     2    23 1   
     8     3     4 1   
     9     3    16 1   
    10     3    24 1   
    11     4     5 1   
    12     4    17 1   
    13     4    25 1   
    14     5     6 1   
    15     5    18 1   
    16     5    26 1   
    17     6    19 1   
    18     6    27 1   
    19     6    28 1   
    20     7     8 ar  
    21     7    12 ar  
    22     7    14 1   
    23     8     9 ar  
    24     8    29 1   
    25     9    10 ar  
    26     9    13 1   
    27    10    11 ar  
    28    10    30 1   
    29    11    12 ar  
    30    11    31 1   
    31    12    32 1   
    32    13    20 1   
    33    13    21 1   
    34    15    33 1   
    35    16    34 1   
    36    17    35 1   
    37    19    36 1   
@<TRIPOS>SUBSTRUCTURE
     1 GAA         1 TEMP              0 ****  ****    0 ROOT
