@<TRIPOS>MOLECULE
GAB
   16    16     1     0     0
SMALL
No Charge or Current Charge


@<TRIPOS>ATOM
      1 C1          -0.3520    -0.0440    -2.0130 c          1 GAB       0.710600
      2 O1          -1.5510    -0.0490    -2.2550 o          1 GAB      -0.723000
      3 O2           0.4990    -0.0480    -2.8930 o          1 GAB      -0.723000
      4 C7           0.1010    -0.0320    -0.5580 ca         1 GAB      -0.105600
      5 C2          -0.8440    -0.0300     0.4980 ca         1 GAB      -0.139000
      6 C3          -0.4270    -0.0190     1.8390 ca         1 GAB       0.235000
      7 C4           0.9400    -0.0100     2.1480 ca         1 GAB      -0.197000
      8 C5           1.8930    -0.0130     1.1170 ca         1 GAB      -0.118000
      9 C6           1.4780    -0.0230    -0.2250 ca         1 GAB      -0.119000
     10 N3          -1.3490    -0.0150     2.8510 nv         1 GAB      -1.078000
     11 H2          -1.9070    -0.0370     0.2750 ha         1 GAB       0.125000
     12 H4           1.2690    -0.0020     3.1840 ha         1 GAB       0.080000
     13 H5           2.9540    -0.0060     1.3570 ha         1 GAB       0.080000
     14 H6           2.2320    -0.0250    -1.0100 ha         1 GAB       0.126000
     15 HN31        -1.0450     0.0990     3.8170 hn         1 GAB       0.422500
     16 HN32        -2.3400     0.0900     2.6450 hn         1 GAB       0.422500
@<TRIPOS>BOND
     1     1     2 1   
     2     1     3 1   
     3     1     4 1   
     4     4     5 ar  
     5     4     9 ar  
     6     5     6 ar  
     7     5    11 1   
     8     6     7 ar  
     9     6    10 1   
    10     7     8 ar  
    11     7    12 1   
    12     8     9 ar  
    13     8    13 1   
    14     9    14 1   
    15    10    15 1   
    16    10    16 1   
@<TRIPOS>SUBSTRUCTURE
     1 GAB         1 TEMP              0 ****  ****    0 ROOT
