@<TRIPOS>MOLECULE
GAB
   16    16     1     0     0
SMALL
abcg2


@<TRIPOS>ATOM
      1 C1          -0.3560    -0.0340    -1.9840 c          1 GAB       0.710600
      2 O1          -1.5870    -0.0450    -2.1800 o          1 GAB      -0.723000
      3 O2           0.5340    -0.0210    -2.8570 o          1 GAB      -0.723000
      4 C7           0.1110    -0.0380    -0.5320 ca         1 GAB      -0.105600
      5 C2          -0.8190    -0.0610     0.5000 ca         1 GAB      -0.139000
      6 C3          -0.4260    -0.0640     1.8420 ca         1 GAB       0.235000
      7 C4           0.9430    -0.0380     2.1340 ca         1 GAB      -0.197000
      8 C5           1.8730    -0.0140     1.1060 ca         1 GAB      -0.118000
      9 C6           1.4700    -0.0150    -0.2220 ca         1 GAB      -0.119000
     10 N3          -1.3650    -0.1450     2.8560 nv         1 GAB      -1.078000
     11 H2          -1.8760    -0.0770     0.2590 ha         1 GAB       0.125000
     12 H4           1.2730    -0.0370     3.1670 ha         1 GAB       0.080000
     13 H5           2.9280     0.0080     1.3500 ha         1 GAB       0.080000
     14 H6           2.2050     0.0040    -1.0150 ha         1 GAB       0.126000
     15 HN31        -1.0710     0.2310     3.7430 hn         1 GAB       0.422500
     16 HN32        -2.2860     0.1810     2.6090 hn         1 GAB       0.422500
@<TRIPOS>BOND
     1     1     2 1   
     2     1     3 1   
     3     1     4 1   
     4     4     5 ar  
     5     4     9 ar  
     6     5     6 ar  
     7     5    11 1   
     8     6     7 ar  
     9     6    10 1   
    10     7     8 ar  
    11     7    12 1   
    12     8     9 ar  
    13     8    13 1   
    14     9    14 1   
    15    10    15 1   
    16    10    16 1   
@<TRIPOS>SUBSTRUCTURE
     1 GAB         1 TEMP              0 ****  ****    0 ROOT
