@<TRIPOS>MOLECULE
GAD
   18    18     1     0     0
SMALL
abcg2


@<TRIPOS>ATOM
      1 C1           1.5640    -0.3270     0.8850 c6         1 GAD       0.114600
      2 C2           0.5190     0.2480     1.8350 c6         1 GAD       0.132300
      3 O2           0.7990    -0.1180     3.1640 oh         1 GAD      -0.661000
      4 C3          -0.8360    -0.3030     1.4410 c6         1 GAD       0.232500
      5 O3          -1.8370     0.4620     2.0820 oh         1 GAD      -0.667000
      6 C4          -0.9630    -0.2510    -0.0550 c2         1 GAD      -0.431200
      7 C5           0.0640    -0.0530    -0.8850 ce         1 GAD       0.039900
      8 C6          -0.0920     0.0770    -2.3970 c          1 GAD       0.724200
      9 O6A         -1.2510    -0.0180    -2.8400 o          1 GAD      -0.698500
     10 O6B          0.9540     0.2680    -3.0390 o          1 GAD      -0.698500
     11 O5           1.3440     0.0610    -0.4580 os         1 GAD      -0.307100
     12 H11          2.5610     0.0270     1.1540 h1         1 GAD       0.036700
     13 H12          1.5610    -1.4230     0.9620 h1         1 GAD       0.036700
     14 H2           0.4970     1.3410     1.7140 h1         1 GAD       0.054700
     15 HO2          1.5700     0.3740     3.4620 ho         1 GAD       0.428000
     16 H3          -0.8910    -1.3510     1.7790 h1         1 GAD       0.024700
     17 HO3         -2.6910     0.0690     1.8770 ho         1 GAD       0.436000
     18 H4          -1.9470    -0.3680    -0.4890 ha         1 GAD       0.204000
@<TRIPOS>BOND
     1     1     2 1   
     2     1    11 1   
     3     1    12 1   
     4     1    13 1   
     5     2     3 1   
     6     2     4 1   
     7     2    14 1   
     8     3    15 1   
     9     4     5 1   
    10     4     6 1   
    11     4    16 1   
    12     5    17 1   
    13     6     7 2   
    14     6    18 1   
    15     7     8 1   
    16     7    11 1   
    17     8     9 1   
    18     8    10 1   
@<TRIPOS>SUBSTRUCTURE
     1 GAD         1 TEMP              0 ****  ****    0 ROOT
