@<TRIPOS>MOLECULE
GAD
   18    18     1     0     0
SMALL
No Charge or Current Charge


@<TRIPOS>ATOM
      1 C1           1.6230    -0.3550     0.9330 c6         1 GAD       0.114600
      2 C2           0.5540     0.2430     1.8800 c6         1 GAD       0.132300
      3 O2           0.8440    -0.0740     3.2600 oh         1 GAD      -0.661000
      4 C3          -0.8400    -0.3030     1.4350 c6         1 GAD       0.232500
      5 O3          -1.9110     0.4110     2.0540 oh         1 GAD      -0.667000
      6 C4          -1.0060    -0.1930    -0.0640 c2         1 GAD      -0.431200
      7 C5           0.0460    -0.0480    -0.9200 ce         1 GAD       0.039900
      8 C6          -0.1230     0.0800    -2.4430 c          1 GAD       0.724200
      9 O6A         -1.2530     0.0530    -2.9190 o          1 GAD      -0.698500
     10 O6B          0.8770     0.2040    -3.1430 o          1 GAD      -0.698500
     11 O5           1.3580    -0.0160    -0.4480 os         1 GAD      -0.307100
     12 H11          2.6250     0.0110     1.1990 h1         1 GAD       0.036700
     13 H12          1.6230    -1.4510     1.0270 h1         1 GAD       0.036700
     14 H2           0.5540     1.3350     1.7400 h1         1 GAD       0.054700
     15 HO2          1.6080     0.4840     3.5260 ho         1 GAD       0.428000
     16 H3          -0.8980    -1.3680     1.7070 h1         1 GAD       0.024700
     17 HO3         -2.7310    -0.0710     1.8160 ho         1 GAD       0.436000
     18 H4          -2.0260    -0.2270    -0.4470 ha         1 GAD       0.204000
@<TRIPOS>BOND
     1     1     2 1   
     2     1    11 1   
     3     1    12 1   
     4     1    13 1   
     5     2     3 1   
     6     2     4 1   
     7     2    14 1   
     8     3    15 1   
     9     4     5 1   
    10     4     6 1   
    11     4    16 1   
    12     5    17 1   
    13     6     7 2   
    14     6    18 1   
    15     7     8 1   
    16     7    11 1   
    17     8     9 1   
    18     8    10 1   
@<TRIPOS>SUBSTRUCTURE
     1 GAD         1 TEMP              0 ****  ****    0 ROOT
