@<TRIPOS>MOLECULE
GAE
   22    21     1     0     0
SMALL
abcg2


@<TRIPOS>ATOM
      1 O6A         -3.3860    -1.2600     0.4660 o          1 GAE      -0.736250
      2 C6          -3.1800    -0.0960     0.1070 c          1 GAE       0.698000
      3 O6B         -3.9690     0.6740    -0.4920 o          1 GAE      -0.736250
      4 C5          -1.8180     0.5360     0.4590 c3         1 GAE      -0.011200
      5 O5          -1.8050     1.8690    -0.0020 oh         1 GAE      -0.774500
      6 C4          -0.6880    -0.2550    -0.1900 c3         1 GAE       0.143800
      7 O4          -0.8410    -0.2330    -1.5970 oh         1 GAE      -0.727000
      8 C3           0.7060     0.2510     0.2210 c3         1 GAE       0.143800
      9 O3           0.8530     0.2080     1.6280 oh         1 GAE      -0.727000
     10 C2           1.8340    -0.5380    -0.4410 c3         1 GAE      -0.011200
     11 C1           3.2040     0.0970    -0.1130 c          1 GAE       0.698000
     12 O1A          4.0080    -0.6720     0.4730 o          1 GAE      -0.736250
     13 O1B          3.3860     1.2750    -0.4320 o          1 GAE      -0.736250
     14 O2           1.8170    -1.8660     0.0190 oh         1 GAE      -0.774500
     15 H5          -1.6970     0.5000     1.5500 h1         1 GAE       0.045200
     16 HO5         -2.6940     1.9350    -0.4090 ho         1 GAE       0.523500
     17 H4          -0.7890    -1.3000     0.1160 h1         1 GAE       0.082700
     18 HO4         -0.9190     0.6940    -1.8540 ho         1 GAE       0.492000
     19 H3           0.8090     1.2990    -0.0750 h1         1 GAE       0.082700
     20 HO3          1.0250    -0.7140     1.8540 ho         1 GAE       0.492000
     21 H2           1.6980    -0.5040    -1.5310 h1         1 GAE       0.045200
     22 HO2          2.7230    -1.9660     0.3720 ho         1 GAE       0.523500
@<TRIPOS>BOND
     1     1     2 1   
     2     2     3 1   
     3     2     4 1   
     4     4     5 1   
     5     4     6 1   
     6     4    15 1   
     7     5    16 1   
     8     6     7 1   
     9     6     8 1   
    10     6    17 1   
    11     7    18 1   
    12     8     9 1   
    13     8    10 1   
    14     8    19 1   
    15     9    20 1   
    16    10    11 1   
    17    10    14 1   
    18    10    21 1   
    19    11    12 1   
    20    11    13 1   
    21    14    22 1   
@<TRIPOS>SUBSTRUCTURE
     1 GAE         1 TEMP              0 ****  ****    0 ROOT
