@<TRIPOS>MOLECULE
GAE
   22    21     1     0     0
SMALL
No Charge or Current Charge


@<TRIPOS>ATOM
      1 O6A         -3.2790    -1.2830     0.6510 o          1 GAE      -0.736250
      2 C6          -3.2260    -0.1460     0.2040 c          1 GAE       0.698000
      3 O6B         -4.1990     0.4430    -0.2530 o          1 GAE      -0.736250
      4 C5          -1.8670     0.6450     0.2580 c3         1 GAE      -0.011200
      5 O5          -1.9470     1.9450    -0.4220 oh         1 GAE      -0.774500
      6 C4          -0.6770    -0.1750    -0.3250 c3         1 GAE       0.143800
      7 O4          -0.6720     0.1350    -1.7240 oh         1 GAE      -0.727000
      8 C3           0.7050     0.1750     0.3270 c3         1 GAE       0.143800
      9 O3           0.6990    -0.1330     1.7260 oh         1 GAE      -0.727000
     10 C2           1.8950    -0.6440    -0.2570 c3         1 GAE      -0.011200
     11 C1           3.2600     0.1310    -0.1600 c          1 GAE       0.698000
     12 O1A          4.2170    -0.4760     0.3070 o          1 GAE      -0.736250
     13 O1B          3.3340     1.2740    -0.5890 o          1 GAE      -0.736250
     14 O2           1.9510    -1.9590     0.3940 oh         1 GAE      -0.774500
     15 H5          -1.6850     0.8070     1.3290 h1         1 GAE       0.045200
     16 HO5         -2.9200     2.1380    -0.4830 ho         1 GAE       0.523500
     17 H4          -0.8560    -1.2490    -0.1680 h1         1 GAE       0.082700
     18 HO4         -1.1200     1.0220    -1.7040 ho         1 GAE       0.492000
     19 H3           0.8830     1.2480     0.1680 h1         1 GAE       0.082700
     20 HO3          1.1310    -1.0280     1.7100 ho         1 GAE       0.492000
     21 H2           1.7280    -0.7780    -1.3340 h1         1 GAE       0.045200
     22 HO2          2.9210    -2.1590     0.4730 ho         1 GAE       0.523500
@<TRIPOS>BOND
     1     1     2 1   
     2     2     3 1   
     3     2     4 1   
     4     4     5 1   
     5     4     6 1   
     6     4    15 1   
     7     5    16 1   
     8     6     7 1   
     9     6     8 1   
    10     6    17 1   
    11     7    18 1   
    12     8     9 1   
    13     8    10 1   
    14     8    19 1   
    15     9    20 1   
    16    10    11 1   
    17    10    14 1   
    18    10    21 1   
    19    11    12 1   
    20    11    13 1   
    21    14    22 1   
@<TRIPOS>SUBSTRUCTURE
     1 GAE         1 TEMP              0 ****  ****    0 ROOT
