@<TRIPOS>MOLECULE
GAF
   23    23     1     0     0
SMALL
No Charge or Current Charge


@<TRIPOS>ATOM
      1 C1           1.4710    -0.4970    -0.4160 c6         1 GAF       0.366300
      2 C2           0.3690    -0.4930    -1.5260 c6         1 GAF       0.139300
      3 F2           0.9560    -0.2180    -2.7860 f          1 GAF      -0.259000
      4 C3          -0.7370     0.5700    -1.2430 c6         1 GAF       0.111300
      5 O3          -1.8140     0.4700    -2.2020 oh         1 GAF      -0.667000
      6 C4          -1.3010     0.3930     0.1990 c6         1 GAF       0.151300
      7 O4          -2.0770    -0.8210     0.2410 oh         1 GAF      -0.713000
      8 C5          -0.1150     0.3910     1.2220 c6         1 GAF       0.172300
      9 O5           0.8660    -0.6370     0.8850 os         1 GAF      -0.458000
     10 C6          -0.5940     0.1640     2.6940 c3         1 GAF       0.172600
     11 O6           0.4800     0.2140     3.6590 oh         1 GAF      -0.718000
     12 O1           2.2410     0.7070    -0.3940 oh         1 GAF      -0.673000
     13 H1C1         2.1390    -1.3550    -0.5950 h2         1 GAF       0.078700
     14 H2          -0.0780    -1.4950    -1.5850 h1         1 GAF       0.086700
     15 H3          -0.2740     1.5670    -1.3020 h1         1 GAF       0.066700
     16 HA          -1.4190     0.6280    -3.0910 ho         1 GAF       0.465000
     17 H4          -1.9470     1.2540     0.4240 h1         1 GAF       0.049700
     18 HB          -2.5390    -0.8370    -0.6330 ho         1 GAF       0.521000
     19 H5           0.3710     1.3770     1.1930 h1         1 GAF       0.064700
     20 H6C1        -1.0990    -0.8100     2.7470 h1         1 GAF       0.037200
     21 H6C2        -1.3440     0.9310     2.9290 h1         1 GAF       0.037200
     22 H6           0.0920    -0.0280     4.5330 ho         1 GAF       0.505000
     23 H1           2.8270     0.6170     0.3870 ho         1 GAF       0.464000
@<TRIPOS>BOND
     1     1     2 1   
     2     1     9 1   
     3     1    12 1   
     4     1    13 1   
     5     2     3 1   
     6     2     4 1   
     7     2    14 1   
     8     4     5 1   
     9     4     6 1   
    10     4    15 1   
    11     5    16 1   
    12     6     7 1   
    13     6     8 1   
    14     6    17 1   
    15     7    18 1   
    16     8     9 1   
    17     8    10 1   
    18     8    19 1   
    19    10    11 1   
    20    10    20 1   
    21    10    21 1   
    22    11    22 1   
    23    12    23 1   
@<TRIPOS>SUBSTRUCTURE
     1 GAF         1 TEMP              0 ****  ****    0 ROOT
