@<TRIPOS>MOLECULE
GAF
   23    23     1     0     0
SMALL
bcc


@<TRIPOS>ATOM
      1 C1           1.4430    -0.4760    -0.3550 c6         1 GAF       0.319900
      2 C2           0.3840    -0.4760    -1.4530 c6         1 GAF       0.120600
      3 F2           0.9980    -0.2590    -2.6830 f          1 GAF      -0.240300
      4 C3          -0.6690     0.5910    -1.2100 c6         1 GAF       0.088100
      5 O3          -1.7200     0.5240    -2.1430 oh         1 GAF      -0.604800
      6 C4          -1.2700     0.3860     0.1810 c6         1 GAF       0.128100
      7 O4          -1.9880    -0.8200     0.2670 oh         1 GAF      -0.590800
      8 C5          -0.1470     0.3620     1.2080 c6         1 GAF       0.149100
      9 O5           0.8170    -0.6320     0.8870 os         1 GAF      -0.411600
     10 C6          -0.6490     0.0840     2.6090 c3         1 GAF       0.149400
     11 O6           0.4050     0.3170     3.5140 oh         1 GAF      -0.595800
     12 O1           2.1740     0.7010    -0.4580 oh         1 GAF      -0.610800
     13 H1C1         2.0890    -1.3550    -0.4580 h2         1 GAF       0.078700
     14 H2          -0.0850    -1.4630    -1.4900 h1         1 GAF       0.086700
     15 H3          -0.1900     1.5800    -1.2260 h1         1 GAF       0.066700
     16 HA          -1.3760     0.7120    -3.0220 ho         1 GAF       0.426000
     17 H4          -1.9140     1.2490     0.4040 h1         1 GAF       0.049700
     18 HB          -2.6910    -0.8010    -0.3910 ho         1 GAF       0.422000
     19 H5           0.3150     1.3580     1.2060 h1         1 GAF       0.064700
     20 H6C1        -1.0210    -0.9440     2.6770 h1         1 GAF       0.037200
     21 H6C2        -1.5010     0.7490     2.8020 h1         1 GAF       0.037200
     22 H6           0.1000     0.0820     4.3940 ho         1 GAF       0.406000
     23 H1           2.9690     0.6250     0.0800 ho         1 GAF       0.425000
@<TRIPOS>BOND
     1     1     2 1   
     2     1     9 1   
     3     1    12 1   
     4     1    13 1   
     5     2     3 1   
     6     2     4 1   
     7     2    14 1   
     8     4     5 1   
     9     4     6 1   
    10     4    15 1   
    11     5    16 1   
    12     6     7 1   
    13     6     8 1   
    14     6    17 1   
    15     7    18 1   
    16     8     9 1   
    17     8    10 1   
    18     8    19 1   
    19    10    11 1   
    20    10    20 1   
    21    10    21 1   
    22    11    22 1   
    23    12    23 1   
@<TRIPOS>SUBSTRUCTURE
     1 GAF         1 TEMP              0 ****  ****    0 ROOT
