@<TRIPOS>MOLECULE
GAG
   11    11     1     0     0
SMALL
No Charge or Current Charge


@<TRIPOS>ATOM
      1 O20         24.3340    19.7950     5.5810 oh         1 GAG      -0.596300
      2 C2          25.4670    19.3890     5.0080 cc         1 GAG       0.525300
      3 C1          25.9990    19.9260     3.8320 cc         1 GAG      -0.239600
      4 COO         25.4920    21.0010     2.9770 c          1 GAG       0.736600
      5 O12         24.4500    21.5710     3.2620 o          1 GAG      -0.716500
      6 O11         26.1460    21.2950     1.9880 o          1 GAG      -0.716500
      7 C5          27.1370    19.2160     3.6310 cd         1 GAG       0.172900
      8 O4          27.2880    18.2910     4.6370 os         1 GAG      -0.127700
      9 N3          26.1740    18.4170     5.5420 nd         1 GAG      -0.538300
     10 H20         24.2620    19.2190     6.3670 ho         1 GAG       0.448000
     11 H5          27.8920    19.2590     2.8560 h4         1 GAG       0.051100
@<TRIPOS>BOND
     1     1     2 1   
     2     1    10 1   
     3     2     3 1   
     4     2     9 2   
     5     3     4 1   
     6     3     7 2   
     7     4     5 1   
     8     4     6 1   
     9     7     8 1   
    10     7    11 1   
    11     8     9 1   
@<TRIPOS>SUBSTRUCTURE
     1 GAG         1 TEMP              0 ****  ****    0 ROOT
