@<TRIPOS>MOLECULE
GAG
   11    11     1     0     0
SMALL
abcg2


@<TRIPOS>ATOM
      1 O20         24.3440    19.7620     5.6450 oh         1 GAG      -0.596300
      2 C2          25.4660    19.3780     5.0280 cc         1 GAG       0.525300
      3 C1          25.9990    19.9380     3.8210 cc         1 GAG      -0.239600
      4 COO         25.4900    21.0430     2.9280 c          1 GAG       0.736600
      5 O12         24.3800    21.5490     3.2170 o          1 GAG      -0.716500
      6 O11         26.2350    21.3520     1.9640 o          1 GAG      -0.716500
      7 C5          27.1270    19.2040     3.6400 cd         1 GAG       0.172900
      8 O4          27.2860    18.2940     4.6100 os         1 GAG      -0.127700
      9 N3          26.2080    18.4100     5.5110 nd         1 GAG      -0.538300
     10 H20         24.2180    19.2240     6.4420 ho         1 GAG       0.448000
     11 H5          27.8860    19.2260     2.8750 h4         1 GAG       0.051100
@<TRIPOS>BOND
     1     1     2 1   
     2     1    10 1   
     3     2     3 1   
     4     2     9 2   
     5     3     4 1   
     6     3     7 2   
     7     4     5 1   
     8     4     6 1   
     9     7     8 1   
    10     7    11 1   
    11     8     9 1   
@<TRIPOS>SUBSTRUCTURE
     1 GAG         1 TEMP              0 ****  ****    0 ROOT
