@<TRIPOS>MOLECULE
GAH
  116   119     1     0     0
SMALL
No Charge or Current Charge


@<TRIPOS>ATOM
      1 C1          -3.5660     0.4850    -2.6290 c6         1 GAH      -0.071900
      2 C6          -2.9220    -0.9190    -2.4610 c6         1 GAH      -0.073700
      3 C7          -1.3670    -0.8200    -2.4240 c3         1 GAH       0.218800
      4 N8          -0.7290    -2.1420    -2.4920 nu         1 GAH      -0.897400
      5 C9           0.5670    -2.2650    -2.5940 c2         1 GAH       0.794100
      6 N11          0.9530    -3.0410    -3.4740 n2         1 GAH      -0.906100
      7 N10          0.9060    -2.4300    -1.3570 nv         1 GAH      -1.072200
      8 C5          -3.4970    -1.6370    -1.2090 c6         1 GAH      -0.071900
      9 C4          -5.0430    -1.7300    -1.2760 c6         1 GAH      -0.062900
     10 C3          -5.7550    -0.3470    -1.3900 c6         1 GAH      -0.137700
     11 C12         -5.7460     0.3970    -0.0310 c          1 GAH       0.606100
     12 O13         -6.7400     0.4470     0.6790 o          1 GAH      -0.617100
     13 C2          -5.1230     0.4400    -2.5900 c6         1 GAH      -0.062900
     14 C18         -5.3490     4.0090     0.5140 c6         1 GAH      -0.054700
     15 C23         -6.3120     5.1750     0.8820 c6         1 GAH      -0.075400
     16 C22         -6.5570     6.1230    -0.3170 c6         1 GAH      -0.072400
     17 C21         -5.2230     6.6810    -0.8660 c6         1 GAH      -0.075400
     18 C20         -4.2610     5.5330    -1.2490 c6         1 GAH      -0.072400
     19 C19         -4.0170     4.5750    -0.0570 c6         1 GAH      -0.075400
     20 N14         -4.5950     1.0670     0.2910 ns         1 GAH      -0.500900
     21 C15         -4.3010     1.7730     1.5540 c3         1 GAH       0.047700
     22 C16         -5.1490     3.0680     1.7490 c3         1 GAH      -0.083400
     23 C17         -2.7440     2.0090     1.6640 c          1 GAH       0.607100
     24 O24         -2.0940     1.7840     0.6440 o          1 GAH      -0.597100
     25 N25         -2.2880     2.5790     2.9070 nj         1 GAH      -0.397800
     26 C28         -0.8180     2.2230     2.9230 cy         1 GAH       0.015700
     27 C29         -0.2060     0.8220     2.4220 c          1 GAH       0.609100
     28 O30         -0.6760    -0.3110     2.3760 o          1 GAH      -0.593100
     29 C27         -1.1260     1.6830     4.3850 cy         1 GAH      -0.101400
     30 C26         -2.6150     1.5150     3.9060 cy         1 GAH       0.105000
     31 N31          1.0550     1.0390     1.9040 ns         1 GAH      -0.483900
     32 C32          1.8750     0.0190     1.2090 c3         1 GAH       0.036700
     33 C41          2.6390     0.6770     0.0300 c          1 GAH       0.596100
     34 O42          3.0910     1.8150     0.0860 o          1 GAH      -0.602100
     35 C33          2.8720    -0.6680     2.1780 c3         1 GAH      -0.041100
     36 C34          2.2070    -1.2920     3.4000 ca         1 GAH      -0.119300
     37 C39          1.6050    -2.5620     3.3070 ca         1 GAH      -0.061000
     38 C35          2.1800    -0.5990     4.6270 ca         1 GAH      -0.061000
     39 C38          0.9790    -3.1320     4.4300 ca         1 GAH      -0.175000
     40 C36          1.5530    -1.1710     5.7470 ca         1 GAH      -0.175000
     41 C37          0.9530    -2.4350     5.6490 ca         1 GAH       0.141100
     42 O40          0.3470    -2.9800     6.7400 oh         1 GAH      -0.535100
     43 N43          2.7790    -0.1090    -1.0920 ns         1 GAH      -0.483900
     44 C44          3.5460     0.2710    -2.2990 c3         1 GAH       0.033700
     45 C48          4.3930    -0.9240    -2.8130 c3         1 GAH      -0.088400
     46 C50          6.2430    -2.6510    -2.3120 c3         1 GAH      -0.091400
     47 C49          5.3650    -1.5070    -1.7570 c3         1 GAH      -0.072400
     48 C51          7.2110    -3.2280    -1.2590 c3         1 GAH       0.218800
     49 N52          8.0280    -4.3000    -1.8450 nu         1 GAH      -0.899400
     50 C53          8.9510    -4.9740    -1.1790 c2         1 GAH       0.786100
     51 N55          9.2370    -4.8120     0.0220 n2         1 GAH      -0.891100
     52 N54          9.4300    -5.8610    -2.0120 nv         1 GAH      -1.067200
     53 C45          2.6110     0.8730    -3.3950 c          1 GAH       0.593100
     54 O46          1.4020     0.9940    -3.2740 o          1 GAH      -0.587100
     55 N47          3.2070     1.2820    -4.5400 nt         1 GAH      -0.605000
     56 H11A        -3.1710     1.1810    -1.8810 hc         1 GAH       0.051700
     57 H12         -3.2550     0.9070    -3.5950 hc         1 GAH       0.051700
     58 H6          -3.1760    -1.5130    -3.3500 hc         1 GAH       0.044700
     59 H71         -1.0410    -0.2190    -3.2840 h1         1 GAH       0.037700
     60 H72         -1.0580    -0.2920    -1.5100 h1         1 GAH       0.037700
     61 HN8         -1.1330    -2.7510    -3.1900 hn         1 GAH       0.483000
     62 H11          1.8900    -3.3550    -3.2060 hn         1 GAH       0.376400
     63 H101         0.0520    -2.2520    -0.8520 hn         1 GAH       0.455000
     64 H102         1.2240    -3.3740    -1.2060 hn         1 GAH       0.455000
     65 H51         -3.0870    -2.6540    -1.1430 hc         1 GAH       0.051700
     66 H52A        -3.1770    -1.1260    -0.2910 hc         1 GAH       0.051700
     67 H41         -5.3230    -2.3490    -2.1400 hc         1 GAH       0.047200
     68 H42         -5.4170    -2.2660    -0.3930 hc         1 GAH       0.047200
     69 H3          -6.8120    -0.5420    -1.6140 hc         1 GAH       0.062700
     70 H21         -5.5210     1.4650    -2.6090 hc         1 GAH       0.047200
     71 H22         -5.4710    -0.0250    -3.5240 hc         1 GAH       0.047200
     72 H18         -5.8350     3.4090    -0.2680 hc         1 GAH       0.051700
     73 H231        -7.2740     4.7730     1.2280 hc         1 GAH       0.041200
     74 H232        -5.8970     5.7500     1.7220 hc         1 GAH       0.041200
     75 H221        -7.0890     5.5830    -1.1130 hc         1 GAH       0.037950
     76 H222        -7.2100     6.9510    -0.0110 hc         1 GAH       0.037950
     77 H211        -5.4160     7.3160    -1.7410 hc         1 GAH       0.036700
     78 H212        -4.7510     7.3240    -0.1100 hc         1 GAH       0.036700
     79 H201        -4.6790     4.9690    -2.0950 hc         1 GAH       0.037950
     80 H202        -3.3050     5.9480    -1.5950 hc         1 GAH       0.037950
     81 H191        -3.4610     5.0990     0.7330 hc         1 GAH       0.041200
     82 H192        -3.3760     3.7580    -0.4070 hc         1 GAH       0.041200
     83 H14         -3.8270     0.9740    -0.3620 hn         1 GAH       0.339500
     84 H15         -4.5820     1.0890     2.3630 h1         1 GAH       0.077700
     85 H161        -6.1410     2.7460     2.0900 hc         1 GAH       0.053200
     86 H162        -4.7360     3.6400     2.5890 hc         1 GAH       0.053200
     87 H28         -0.1380     3.0810     2.8920 h1         1 GAH       0.082700
     88 H271        -0.6290     0.7770     4.7550 hc         1 GAH       0.071700
     89 H272        -1.0080     2.4500     5.1580 hc         1 GAH       0.071700
     90 H261        -3.3660     1.8180     4.6440 h1         1 GAH       0.060200
     91 H262        -2.8390     0.5190     3.5030 h1         1 GAH       0.060200
     92 H31          1.4030     1.9920     1.9230 hn         1 GAH       0.331500
     93 H32          1.2100    -0.7420     0.7840 h1         1 GAH       0.094700
     94 H331         3.4270    -1.4360     1.6250 hc         1 GAH       0.057700
     95 H332         3.6200     0.0690     2.4960 hc         1 GAH       0.057700
     96 H39          1.6160    -3.1030     2.3640 ha         1 GAH       0.111000
     97 H35          2.6390     0.3840     4.7110 ha         1 GAH       0.111000
     98 H38          0.5160    -4.1120     4.3440 ha         1 GAH       0.121000
     99 H36          1.5320    -0.6320     6.6910 ha         1 GAH       0.121000
    100 H40         -0.0110    -3.8590     6.4890 ho         1 GAH       0.466000
    101 H43          2.2840    -1.0000    -1.0930 hn         1 GAH       0.326500
    102 H44          4.2460     1.0720    -2.0290 h1         1 GAH       0.072700
    103 H481         3.7200    -1.7180    -3.1610 hc         1 GAH       0.056700
    104 H482         4.9790    -0.6060    -3.6840 hc         1 GAH       0.056700
    105 H501         5.5940    -3.4530    -2.6850 hc         1 GAH       0.044200
    106 H502         6.8220    -2.2780    -3.1660 hc         1 GAH       0.044200
    107 H491         6.0130    -0.7040    -1.3830 hc         1 GAH       0.045200
    108 H492         4.7950    -1.8840    -0.8990 hc         1 GAH       0.045200
    109 H511         7.8590    -2.4230    -0.8850 h1         1 GAH       0.052200
    110 H512         6.6310    -3.6160    -0.4090 h1         1 GAH       0.052200
    111 H52          7.5830    -4.8700    -2.5520 hn         1 GAH       0.466000
    112 H55          9.9510    -5.5040     0.2700 hn         1 GAH       0.378400
    113 H541         9.5390    -5.4630    -2.9340 hn         1 GAH       0.452500
    114 H542        10.2630    -6.3220    -1.6740 hn         1 GAH       0.452500
    115 H471         4.2070     1.1980    -4.6520 hn         1 GAH       0.314500
    116 H472         2.6400     1.6790    -5.2740 hn         1 GAH       0.314500
@<TRIPOS>BOND
     1     1     2 1   
     2     1    13 1   
     3     1    56 1   
     4     1    57 1   
     5     2     3 1   
     6     2     8 1   
     7     2    58 1   
     8     3     4 1   
     9     3    59 1   
    10     3    60 1   
    11     4     5 1   
    12     4    61 1   
    13     5     6 2   
    14     5     7 1   
    15     6    62 1   
    16     7    63 1   
    17     7    64 1   
    18     8     9 1   
    19     8    65 1   
    20     8    66 1   
    21     9    10 1   
    22     9    67 1   
    23     9    68 1   
    24    10    11 1   
    25    10    13 1   
    26    10    69 1   
    27    11    12 2   
    28    11    20 1   
    29    13    70 1   
    30    13    71 1   
    31    14    15 1   
    32    14    19 1   
    33    14    22 1   
    34    14    72 1   
    35    15    16 1   
    36    15    73 1   
    37    15    74 1   
    38    16    17 1   
    39    16    75 1   
    40    16    76 1   
    41    17    18 1   
    42    17    77 1   
    43    17    78 1   
    44    18    19 1   
    45    18    79 1   
    46    18    80 1   
    47    19    81 1   
    48    19    82 1   
    49    20    21 1   
    50    20    83 1   
    51    21    22 1   
    52    21    23 1   
    53    21    84 1   
    54    22    85 1   
    55    22    86 1   
    56    23    24 2   
    57    23    25 1   
    58    25    26 1   
    59    25    30 1   
    60    26    27 1   
    61    26    29 1   
    62    26    87 1   
    63    27    28 2   
    64    27    31 1   
    65    29    30 1   
    66    29    88 1   
    67    29    89 1   
    68    30    90 1   
    69    30    91 1   
    70    31    32 1   
    71    31    92 1   
    72    32    33 1   
    73    32    35 1   
    74    32    93 1   
    75    33    34 2   
    76    33    43 1   
    77    35    36 1   
    78    35    94 1   
    79    35    95 1   
    80    36    37 ar  
    81    36    38 ar  
    82    37    39 ar  
    83    37    96 1   
    84    38    40 ar  
    85    38    97 1   
    86    39    41 ar  
    87    39    98 1   
    88    40    41 ar  
    89    40    99 1   
    90    41    42 1   
    91    42   100 1   
    92    43    44 1   
    93    43   101 1   
    94    44    45 1   
    95    44    53 1   
    96    44   102 1   
    97    45    47 1   
    98    45   103 1   
    99    45   104 1   
   100    46    47 1   
   101    46    48 1   
   102    46   105 1   
   103    46   106 1   
   104    47   107 1   
   105    47   108 1   
   106    48    49 1   
   107    48   109 1   
   108    48   110 1   
   109    49    50 1   
   110    49   111 1   
   111    50    51 2   
   112    50    52 1   
   113    51   112 1   
   114    52   113 1   
   115    52   114 1   
   116    53    54 2   
   117    53    55 1   
   118    55   115 1   
   119    55   116 1   
@<TRIPOS>SUBSTRUCTURE
     1 GAH         1 TEMP              0 ****  ****    0 ROOT
