@<TRIPOS>MOLECULE
GAH
  116   119     1     0     0
SMALL
bcc


@<TRIPOS>ATOM
      1 C1          -3.5180    -1.3760    -2.6590 c6         1 GAH      -0.071900
      2 C6          -4.6200    -2.3580    -3.0540 c6         1 GAH      -0.073700
      3 C7          -4.2220    -3.7740    -2.6560 c3         1 GAH       0.218800
      4 N8          -5.1950    -4.7380    -3.1310 nu         1 GAH      -0.842200
      5 C9          -5.0810    -6.0900    -2.9240 c2         1 GAH       0.794100
      6 N11         -5.6290    -6.8990    -3.7580 n2         1 GAH      -0.906100
      7 N10         -4.3440    -6.4530    -1.8230 nv         1 GAH      -0.961800
      8 C5          -5.9550    -1.9330    -2.4450 c6         1 GAH      -0.071900
      9 C4          -6.3060    -0.4870    -2.7840 c6         1 GAH      -0.062900
     10 C3          -5.2020     0.5010    -2.4070 c6         1 GAH      -0.137700
     11 C12         -5.1030     0.6990    -0.8960 c          1 GAH       0.673100
     12 O13         -5.9200     0.2430    -0.1090 o          1 GAH      -0.617100
     13 C2          -3.8810     0.0520    -3.0460 c6         1 GAH      -0.062900
     14 C18         -4.9970     4.0730     0.6630 c6         1 GAH      -0.054700
     15 C23         -6.0860     4.9020     1.3510 c6         1 GAH      -0.075400
     16 C22         -6.4020     6.1930     0.6060 c6         1 GAH      -0.072400
     17 C21         -5.1450     7.0320     0.4060 c6         1 GAH      -0.075400
     18 C20         -4.0640     6.2230    -0.3000 c6         1 GAH      -0.072400
     19 C19         -3.7480     4.9280     0.4440 c6         1 GAH      -0.075400
     20 N14         -4.0660     1.4490    -0.4840 ns         1 GAH      -0.567900
     21 C15         -3.8050     1.7440     0.9000 c3         1 GAH       0.047700
     22 C16         -4.7480     2.8120     1.4890 c3         1 GAH      -0.083400
     23 C17         -2.3250     2.0790     1.0380 c          1 GAH       0.674100
     24 O24         -1.5950     2.2880     0.0780 o          1 GAH      -0.597100
     25 N25         -1.8650     2.1410     2.2910 nj         1 GAH      -0.464800
     26 C28         -0.4780     2.2320     2.6950 cy         1 GAH       0.015700
     27 C29          0.4000     1.1790     2.0390 c          1 GAH       0.676100
     28 O30         -0.0300     0.0680     1.7880 o          1 GAH      -0.593100
     29 C27         -0.9220     1.8250     4.1260 cy         1 GAH      -0.101400
     30 C26         -2.3510     1.6580     3.5800 cy         1 GAH       0.105000
     31 N31          1.6670     1.5730     1.8300 ns         1 GAH      -0.550900
     32 C32          2.7170     0.6930     1.3960 c3         1 GAH       0.036700
     33 C41          3.5220     1.3640     0.2920 c          1 GAH       0.663100
     34 O42          3.7020     2.5720     0.2740 o          1 GAH      -0.602100
     35 C33          3.6710     0.3400     2.5570 c3         1 GAH      -0.041100
     36 C34          2.9470    -0.3120     3.6970 ca         1 GAH      -0.119300
     37 C39          2.6100    -1.6610     3.6520 ca         1 GAH      -0.079000
     38 C35          2.5460     0.4190     4.8110 ca         1 GAH      -0.079000
     39 C38          1.8980    -2.2650     4.6760 ca         1 GAH      -0.193000
     40 C36          1.8350    -0.1660     5.8470 ca         1 GAH      -0.193000
     41 C37          1.5020    -1.5160     5.7820 ca         1 GAH       0.141100
     42 O40          0.8070    -2.0470     6.8100 oh         1 GAH      -0.496100
     43 N43          4.0840     0.5270    -0.5900 ns         1 GAH      -0.550900
     44 C44          4.9450     1.0020    -1.6410 c3         1 GAH       0.033700
     45 C48          5.6380    -0.1730    -2.3340 c3         1 GAH      -0.088400
     46 C50          7.2950    -2.0700    -2.1510 c3         1 GAH      -0.091400
     47 C49          6.5230    -0.9920    -1.4010 c3         1 GAH      -0.072400
     48 C51          8.1660    -2.8970    -1.2200 c3         1 GAH       0.218800
     49 N52          8.8480    -3.9400    -1.9520 nu         1 GAH      -0.844200
     50 C53          9.8420    -4.6720    -1.3570 c2         1 GAH       0.786100
     51 N55         10.3210    -4.3230    -0.2200 n2         1 GAH      -0.891100
     52 N54         10.2140    -5.7820    -2.0870 nv         1 GAH      -0.956800
     53 C45          4.1410     1.8040    -2.6700 c          1 GAH       0.660100
     54 O46          2.9650     1.5680    -2.8900 o          1 GAH      -0.587100
     55 N47          4.8530     2.7290    -3.3250 nt         1 GAH      -0.672000
     56 H11A        -3.3430    -1.4390    -1.5790 hc         1 GAH       0.051700
     57 H12         -2.5780    -1.6590    -3.1400 hc         1 GAH       0.051700
     58 H6          -4.7110    -2.3260    -4.1490 hc         1 GAH       0.044700
     59 H71         -3.2160    -3.9890    -3.0390 h1         1 GAH       0.037700
     60 H72         -4.1600    -3.8140    -1.5640 h1         1 GAH       0.037700
     61 HN8         -5.5700    -4.5340    -4.0460 hn         1 GAH       0.427800
     62 H11         -5.5360    -7.8570    -3.4420 hn         1 GAH       0.376400
     63 H101        -4.3230    -5.8160    -1.0430 hn         1 GAH       0.399800
     64 H102        -4.4540    -7.4090    -1.5260 hn         1 GAH       0.399800
     65 H51         -6.7560    -2.5870    -2.7960 hc         1 GAH       0.051700
     66 H52A        -5.9050    -2.0570    -1.3600 hc         1 GAH       0.051700
     67 H41         -6.4680    -0.4020    -3.8630 hc         1 GAH       0.047200
     68 H42         -7.2480    -0.2070    -2.3100 hc         1 GAH       0.047200
     69 H3          -5.4610     1.4840    -2.8180 hc         1 GAH       0.062700
     70 H21         -3.0580     0.7300    -2.8080 hc         1 GAH       0.047200
     71 H22         -4.0000     0.1120    -4.1320 hc         1 GAH       0.047200
     72 H18         -5.3790     3.7740    -0.3210 hc         1 GAH       0.051700
     73 H231        -6.9930     4.2990     1.4610 hc         1 GAH       0.041200
     74 H232        -5.7540     5.1470     2.3680 hc         1 GAH       0.041200
     75 H221        -6.8380     5.9540    -0.3700 hc         1 GAH       0.037950
     76 H222        -7.1570     6.7630     1.1530 hc         1 GAH       0.037950
     77 H211        -5.3760     7.9380    -0.1600 hc         1 GAH       0.036700
     78 H212        -4.7710     7.3620     1.3820 hc         1 GAH       0.036700
     79 H201        -4.4010     5.9810    -1.3140 hc         1 GAH       0.037950
     80 H202        -3.1540     6.8170    -0.4110 hc         1 GAH       0.037950
     81 H191        -3.3000     5.1650     1.4170 hc         1 GAH       0.041200
     82 H192        -2.9970     4.3730    -0.1180 hc         1 GAH       0.041200
     83 H14         -3.4130     1.8230    -1.1560 hn         1 GAH       0.339500
     84 H15         -3.9710     0.8300     1.4830 h1         1 GAH       0.077700
     85 H161        -5.7100     2.3210     1.6570 hc         1 GAH       0.053200
     86 H162        -4.3870     3.0980     2.4810 hc         1 GAH       0.053200
     87 H28         -0.0570     3.2360     2.6070 h1         1 GAH       0.082700
     88 H271        -0.4600     0.9180     4.5050 hc         1 GAH       0.071700
     89 H272        -0.8120     2.6200     4.8590 hc         1 GAH       0.071700
     90 H261        -3.1050     2.2960     4.0410 h1         1 GAH       0.060200
     91 H262        -2.7200     0.6320     3.5510 h1         1 GAH       0.060200
     92 H31          1.9250     2.5220     2.0530 hn         1 GAH       0.331500
     93 H32          2.2530    -0.2230     1.0260 h1         1 GAH       0.094700
     94 H331         4.4570    -0.3150     2.1740 hc         1 GAH       0.057700
     95 H332         4.1620     1.2550     2.8970 hc         1 GAH       0.057700
     96 H39          2.9090    -2.2610     2.7990 ha         1 GAH       0.129000
     97 H35          2.7960     1.4720     4.8800 ha         1 GAH       0.129000
     98 H38          1.6520    -3.3190     4.6130 ha         1 GAH       0.139000
     99 H36          1.5330     0.4230     6.7040 ha         1 GAH       0.139000
    100 H40          0.6240    -2.9790     6.6440 ho         1 GAH       0.427000
    101 H43          3.7980    -0.4390    -0.6010 hn         1 GAH       0.326500
    102 H44          5.7110     1.6490    -1.2030 h1         1 GAH       0.072700
    103 H481         4.8850    -0.8160    -2.8010 hc         1 GAH       0.056700
    104 H482         6.2470     0.2280    -3.1470 hc         1 GAH       0.056700
    105 H501         6.5890    -2.7240    -2.6730 hc         1 GAH       0.044200
    106 H502         7.9220    -1.6100    -2.9200 hc         1 GAH       0.044200
    107 H491         7.2240    -0.3260    -0.8890 hc         1 GAH       0.045200
    108 H492         5.9180    -1.4620    -0.6200 hc         1 GAH       0.045200
    109 H511         8.9160    -2.2600    -0.7500 h1         1 GAH       0.052200
    110 H512         7.5530    -3.3070    -0.4060 h1         1 GAH       0.052200
    111 H52          8.2600    -4.4550    -2.5910 hn         1 GAH       0.410800
    112 H55         11.0990    -4.9200     0.0360 hn         1 GAH       0.378400
    113 H541        10.1060    -5.7140    -3.0880 hn         1 GAH       0.397300
    114 H542        11.1040    -6.1820    -1.8370 hn         1 GAH       0.397300
    115 H471         5.8130     2.9230    -3.0980 hn         1 GAH       0.314500
    116 H472         4.4370     3.2650    -4.0690 hn         1 GAH       0.314500
@<TRIPOS>BOND
     1     1     2 1   
     2     1    13 1   
     3     1    56 1   
     4     1    57 1   
     5     2     3 1   
     6     2     8 1   
     7     2    58 1   
     8     3     4 1   
     9     3    59 1   
    10     3    60 1   
    11     4     5 1   
    12     4    61 1   
    13     5     6 2   
    14     5     7 1   
    15     6    62 1   
    16     7    63 1   
    17     7    64 1   
    18     8     9 1   
    19     8    65 1   
    20     8    66 1   
    21     9    10 1   
    22     9    67 1   
    23     9    68 1   
    24    10    11 1   
    25    10    13 1   
    26    10    69 1   
    27    11    12 2   
    28    11    20 1   
    29    13    70 1   
    30    13    71 1   
    31    14    15 1   
    32    14    19 1   
    33    14    22 1   
    34    14    72 1   
    35    15    16 1   
    36    15    73 1   
    37    15    74 1   
    38    16    17 1   
    39    16    75 1   
    40    16    76 1   
    41    17    18 1   
    42    17    77 1   
    43    17    78 1   
    44    18    19 1   
    45    18    79 1   
    46    18    80 1   
    47    19    81 1   
    48    19    82 1   
    49    20    21 1   
    50    20    83 1   
    51    21    22 1   
    52    21    23 1   
    53    21    84 1   
    54    22    85 1   
    55    22    86 1   
    56    23    24 2   
    57    23    25 1   
    58    25    26 1   
    59    25    30 1   
    60    26    27 1   
    61    26    29 1   
    62    26    87 1   
    63    27    28 2   
    64    27    31 1   
    65    29    30 1   
    66    29    88 1   
    67    29    89 1   
    68    30    90 1   
    69    30    91 1   
    70    31    32 1   
    71    31    92 1   
    72    32    33 1   
    73    32    35 1   
    74    32    93 1   
    75    33    34 2   
    76    33    43 1   
    77    35    36 1   
    78    35    94 1   
    79    35    95 1   
    80    36    37 ar  
    81    36    38 ar  
    82    37    39 ar  
    83    37    96 1   
    84    38    40 ar  
    85    38    97 1   
    86    39    41 ar  
    87    39    98 1   
    88    40    41 ar  
    89    40    99 1   
    90    41    42 1   
    91    42   100 1   
    92    43    44 1   
    93    43   101 1   
    94    44    45 1   
    95    44    53 1   
    96    44   102 1   
    97    45    47 1   
    98    45   103 1   
    99    45   104 1   
   100    46    47 1   
   101    46    48 1   
   102    46   105 1   
   103    46   106 1   
   104    47   107 1   
   105    47   108 1   
   106    48    49 1   
   107    48   109 1   
   108    48   110 1   
   109    49    50 1   
   110    49   111 1   
   111    50    51 2   
   112    50    52 1   
   113    51   112 1   
   114    52   113 1   
   115    52   114 1   
   116    53    54 2   
   117    53    55 1   
   118    55   115 1   
   119    55   116 1   
@<TRIPOS>SUBSTRUCTURE
     1 GAH         1 TEMP              0 ****  ****    0 ROOT
