@<TRIPOS>MOLECULE
GAI
    9     8     1     0     0
SMALL
bcc


@<TRIPOS>ATOM
      1 C            0.1190     0.0050    -0.0110 c2         1 GAI       0.773100
      2 N1           1.3830    -0.0230    -0.2230 n2         1 GAI      -0.890100
      3 N2          -0.3710    -0.1610     1.2630 nv         1 GAI      -0.937800
      4 N3          -0.8610     0.2010    -0.9570 nv         1 GAI      -0.937800
      5 HN1          1.5830     0.0220    -1.2150 hn         1 GAI       0.379400
      6 HN21         0.3250    -0.0550     1.9830 hn         1 GAI       0.403800
      7 HN22        -1.2250     0.3290     1.4820 hn         1 GAI       0.403800
      8 HN31        -0.5790     0.0630    -1.9140 hn         1 GAI       0.403800
      9 HN32        -1.7610    -0.2090    -0.7630 hn         1 GAI       0.403800
@<TRIPOS>BOND
     1     1     2 2   
     2     1     3 1   
     3     1     4 1   
     4     2     5 1   
     5     3     6 1   
     6     3     7 1   
     7     4     8 1   
     8     4     9 1   
@<TRIPOS>SUBSTRUCTURE
     1 GAI         1 TEMP              0 ****  ****    0 ROOT
