@<TRIPOS>MOLECULE
GAI
    9     8     1     0     0
SMALL
No Charge or Current Charge


@<TRIPOS>ATOM
      1 C            0.1160    -0.0110    -0.0020 c2         1 GAI       0.773100
      2 N1           1.3330    -0.0220    -0.2040 n2         1 GAI      -0.890100
      3 N2          -0.4420    -0.1770     1.1500 nv         1 GAI      -1.048200
      4 N3          -0.8160     0.1930    -0.8770 nv         1 GAI      -1.048200
      5 HN1          1.4870     0.1760    -1.1990 hn         1 GAI       0.379400
      6 HN21         0.2690    -0.2290     1.8670 hn         1 GAI       0.459000
      7 HN22        -1.1330     0.5360     1.3300 hn         1 GAI       0.459000
      8 HN31        -0.5280    -0.0280    -1.8200 hn         1 GAI       0.459000
      9 HN32        -1.6730    -0.2650    -0.6010 hn         1 GAI       0.459000
@<TRIPOS>BOND
     1     1     2 2   
     2     1     3 1   
     3     1     4 1   
     4     2     5 1   
     5     3     6 1   
     6     3     7 1   
     7     4     8 1   
     8     4     9 1   
@<TRIPOS>SUBSTRUCTURE
     1 GAI         1 TEMP              0 ****  ****    0 ROOT
