@<TRIPOS>MOLECULE
GAJ
   33    36     1     0     0
SMALL
No Charge or Current Charge


@<TRIPOS>ATOM
      1 O2          -3.2290     1.0290     1.7320 o          1 GAJ      -0.558500
      2 S           -2.4570    -0.1830     1.4370 sy         1 GAJ       1.236100
      3 O1          -2.3300    -1.2490     2.4340 o          1 GAJ      -0.558500
      4 N4          -3.0550    -0.8600     0.0750 ne         1 GAJ      -0.868300
      5 C14         -4.0240    -0.2500    -0.4760 cd         1 GAJ       0.890100
      6 N           -5.2760    -0.7250    -0.5480 na         1 GAJ      -0.592000
      7 N1          -5.9760    -0.3110    -1.6580 n2         1 GAJ      -0.060700
      8 N2          -5.1530     0.3300    -2.3730 n2         1 GAJ      -0.060700
      9 N3          -3.9570     0.3050    -1.6950 na         1 GAJ      -0.592000
     10 C1          -0.8250     0.3100     0.8830 ca         1 GAJ      -0.313500
     11 C            0.1960    -0.6570     0.8130 ca         1 GAJ       0.092000
     12 C2          -0.5640     1.6430     0.5100 ca         1 GAJ       0.025000
     13 C3           0.7210     2.0030     0.0740 ca         1 GAJ      -0.166000
     14 C4           1.7410     1.0430     0.0070 ca         1 GAJ       0.215100
     15 O7           2.9860     1.4330    -0.4250 os         1 GAJ      -0.213200
     16 C6           4.0480     0.5660    -0.5270 ca         1 GAJ       0.158100
     17 C8           5.2820     1.0600    -0.9790 ca         1 GAJ      -0.141000
     18 C9           6.3880     0.2010    -1.0950 ca         1 GAJ      -0.053000
     19 C10          6.2550    -1.1560    -0.7570 ca         1 GAJ      -0.146000
     20 C11          5.0210    -1.6550    -0.3040 ca         1 GAJ      -0.022000
     21 C12          3.9100    -0.7910    -0.1870 ca         1 GAJ      -0.229600
     22 C13          2.5850    -1.2910     0.2920 c          1 GAJ       0.606300
     23 C5           1.4840    -0.2880     0.3750 ca         1 GAJ      -0.262600
     24 O            2.4100    -2.4630     0.6010 o          1 GAJ      -0.520100
     25 H           -5.6620    -1.4360     0.0590 hn         1 GAJ       0.592000
     26 H3          -3.1010     0.5560    -2.1700 hn         1 GAJ       0.592000
     27 HA          -0.0120    -1.6900     1.0950 ha         1 GAJ       0.165000
     28 H2          -1.3450     2.4010     0.5540 ha         1 GAJ       0.127000
     29 HB           0.9280     3.0300    -0.2140 ha         1 GAJ       0.138000
     30 H8           5.3800     2.1110    -1.2390 ha         1 GAJ       0.136000
     31 H9           7.3430     0.5860    -1.4450 ha         1 GAJ       0.122000
     32 H10          7.1100    -1.8230    -0.8460 ha         1 GAJ       0.125000
     33 H11          4.9330    -2.7090    -0.0450 ha         1 GAJ       0.140000
@<TRIPOS>BOND
     1     1     2 2   
     2     2     3 2   
     3     2     4 1   
     4     2    10 1   
     5     4     5 2   
     6     5     6 1   
     7     5     9 1   
     8     6     7 1   
     9     6    25 1   
    10     7     8 2   
    11     8     9 1   
    12     9    26 1   
    13    10    11 ar  
    14    10    12 ar  
    15    11    23 ar  
    16    11    27 1   
    17    12    13 ar  
    18    12    28 1   
    19    13    14 ar  
    20    13    29 1   
    21    14    15 1   
    22    14    23 ar  
    23    15    16 1   
    24    16    17 ar  
    25    16    21 ar  
    26    17    18 ar  
    27    17    30 1   
    28    18    19 ar  
    29    18    31 1   
    30    19    20 ar  
    31    19    32 1   
    32    20    21 ar  
    33    20    33 1   
    34    21    22 1   
    35    22    23 1   
    36    22    24 2   
@<TRIPOS>SUBSTRUCTURE
     1 GAJ         1 TEMP              0 ****  ****    0 ROOT
