@<TRIPOS>MOLECULE
GAJ
   33    36     1     0     0
SMALL
abcg2


@<TRIPOS>ATOM
      1 O2          -3.0350     1.1230     1.7310 o          1 GAJ      -0.558500
      2 S           -2.3730    -0.1460     1.4130 sy         1 GAJ       1.236100
      3 O1          -2.1960    -1.1110     2.4850 o          1 GAJ      -0.558500
      4 N4          -3.0870    -0.9090     0.1800 ne         1 GAJ      -0.868300
      5 C14         -4.0100    -0.3350    -0.5370 cd         1 GAJ       0.890100
      6 N           -4.5940    -0.9020    -1.6110 na         1 GAJ      -0.592000
      7 N1          -5.5090    -0.0960    -2.1500 n2         1 GAJ      -0.060700
      8 N2          -5.5420     0.9600    -1.4790 n2         1 GAJ      -0.060700
      9 N3          -4.6470     0.8550    -0.4900 na         1 GAJ      -0.592000
     10 C1          -0.7680     0.2430     0.7690 ca         1 GAJ      -0.313500
     11 C            0.2770    -0.6320     0.9630 ca         1 GAJ       0.092000
     12 C2          -0.5870     1.4290     0.0510 ca         1 GAJ       0.025000
     13 C3           0.6450     1.7310    -0.4770 ca         1 GAJ      -0.166000
     14 C4           1.7050     0.8440    -0.2860 ca         1 GAJ       0.215100
     15 O7           2.8830     1.1920    -0.8230 os         1 GAJ      -0.213200
     16 C6           3.9660     0.3950    -0.6850 ca         1 GAJ       0.158100
     17 C8           5.1420     0.8400    -1.2820 ca         1 GAJ      -0.141000
     18 C9           6.2790     0.0660    -1.1710 ca         1 GAJ      -0.053000
     19 C10          6.2570    -1.1450    -0.4730 ca         1 GAJ      -0.146000
     20 C11          5.0870    -1.5750     0.1120 ca         1 GAJ      -0.022000
     21 C12          3.9190    -0.8100     0.0140 ca         1 GAJ      -0.229600
     22 C13          2.6660    -1.2540     0.6290 c          1 GAJ       0.606300
     23 C5           1.5350    -0.3380     0.4330 ca         1 GAJ      -0.262600
     24 O            2.5620    -2.2960     1.2510 o          1 GAJ      -0.520100
     25 H           -4.4060    -1.8140    -2.0020 hn         1 GAJ       0.592000
     26 H3          -4.5230     1.5970     0.1850 hn         1 GAJ       0.592000
     27 HA           0.1470    -1.5480     1.5230 ha         1 GAJ       0.165000
     28 H2          -1.4030     2.1250    -0.0910 ha         1 GAJ       0.127000
     29 HB           0.8000     2.6470    -1.0320 ha         1 GAJ       0.138000
     30 H8           5.1530     1.7780    -1.8210 ha         1 GAJ       0.136000
     31 H9           7.1960     0.4050    -1.6330 ha         1 GAJ       0.122000
     32 H10          7.1570    -1.7400    -0.3920 ha         1 GAJ       0.125000
     33 H11          5.0580    -2.5100     0.6550 ha         1 GAJ       0.140000
@<TRIPOS>BOND
     1     1     2 2   
     2     2     3 2   
     3     2     4 1   
     4     2    10 1   
     5     4     5 2   
     6     5     6 1   
     7     5     9 1   
     8     6     7 1   
     9     6    25 1   
    10     7     8 2   
    11     8     9 1   
    12     9    26 1   
    13    10    11 ar  
    14    10    12 ar  
    15    11    23 ar  
    16    11    27 1   
    17    12    13 ar  
    18    12    28 1   
    19    13    14 ar  
    20    13    29 1   
    21    14    15 1   
    22    14    23 ar  
    23    15    16 1   
    24    16    17 ar  
    25    16    21 ar  
    26    17    18 ar  
    27    17    30 1   
    28    18    19 ar  
    29    18    31 1   
    30    19    20 ar  
    31    19    32 1   
    32    20    21 ar  
    33    20    33 1   
    34    21    22 1   
    35    22    23 1   
    36    22    24 2   
@<TRIPOS>SUBSTRUCTURE
     1 GAJ         1 TEMP              0 ****  ****    0 ROOT
