@<TRIPOS>MOLECULE
GAL
   24    24     1     0     0
SMALL
bcc


@<TRIPOS>ATOM
      1 C1           5.0470    90.4610    82.6880 c6         1 GAL       0.357900
      2 C2           4.3880    91.7460    82.1990 c6         1 GAL       0.127100
      3 C3           4.7490    91.9550    80.7300 c6         1 GAL       0.112100
      4 C4           6.2630    91.9400    80.5290 c6         1 GAL       0.091100
      5 C5           6.8000    90.6320    81.1180 c6         1 GAL       0.128100
      6 C6           8.3060    90.5270    81.0140 c3         1 GAL       0.146400
      7 O1           4.8180    90.3230    84.0390 oh         1 GAL      -0.556800
      8 O2           2.9990    91.6160    82.3680 oh         1 GAL      -0.587800
      9 O3           4.1450    93.1550    80.3130 oh         1 GAL      -0.581800
     10 O4           6.8090    93.0780    81.1510 oh         1 GAL      -0.564800
     11 O5           6.4370    90.5220    82.4780 os         1 GAL      -0.419600
     12 O6           8.7060    89.2400    81.4150 oh         1 GAL      -0.584800
     13 H1           4.6320    89.6110    82.1150 h2         1 GAL       0.019700
     14 H2           4.7860    92.5840    82.7930 h1         1 GAL       0.088700
     15 H3           4.3450    91.1000    80.1670 h1         1 GAL       0.037700
     16 H4           6.4700    91.9370    79.4490 h1         1 GAL       0.031700
     17 H5           6.3570    89.8050    80.5380 h1         1 GAL       0.046700
     18 H61          8.5870    90.7360    79.9730 h1         1 GAL       0.026700
     19 H62          8.7700    91.3040    81.6350 h1         1 GAL       0.026700
     20 HO1          4.9890    89.4110    84.2990 ho         1 GAL       0.419000
     21 HO2          2.5820    92.3700    81.9380 ho         1 GAL       0.420000
     22 HO3          4.0870    93.1540    79.3530 ho         1 GAL       0.407000
     23 HO4          7.6680    93.2680    80.7640 ho         1 GAL       0.402000
     24 HO6          9.6660    89.2090    81.4060 ho         1 GAL       0.407000
@<TRIPOS>BOND
     1     1     2 1   
     2     1     7 1   
     3     1    11 1   
     4     1    13 1   
     5     2     3 1   
     6     2     8 1   
     7     2    14 1   
     8     3     4 1   
     9     3     9 1   
    10     3    15 1   
    11     4     5 1   
    12     4    10 1   
    13     4    16 1   
    14     5     6 1   
    15     5    11 1   
    16     5    17 1   
    17     6    12 1   
    18     6    18 1   
    19     6    19 1   
    20     7    20 1   
    21     8    21 1   
    22     9    22 1   
    23    10    23 1   
    24    12    24 1   
@<TRIPOS>SUBSTRUCTURE
     1 GAL         1 TEMP              0 ****  ****    0 ROOT
