@<TRIPOS>MOLECULE
GAL
   24    24     1     0     0
SMALL
No Charge or Current Charge


@<TRIPOS>ATOM
      1 C1           4.9500    90.3910    82.6980 c6         1 GAL       0.404300
      2 C2           4.2450    91.6880    82.1540 c6         1 GAL       0.150300
      3 C3           4.6170    91.8860    80.6500 c6         1 GAL       0.135300
      4 C4           6.1630    91.8790    80.4560 c6         1 GAL       0.114300
      5 C5           6.7330    90.5610    81.0880 c6         1 GAL       0.151300
      6 C6           8.2870    90.4330    80.9630 c3         1 GAL       0.169600
      7 O1           4.8200    90.2540    84.1000 oh         1 GAL      -0.679000
      8 O2           2.8020    91.6650    82.2940 oh         1 GAL      -0.710000
      9 O3           4.0750    93.1260    80.1620 oh         1 GAL      -0.704000
     10 O4           6.7110    93.0780    81.0530 oh         1 GAL      -0.687000
     11 O5           6.3640    90.4670    82.4890 os         1 GAL      -0.466000
     12 O6           8.7980    89.1970    81.5000 oh         1 GAL      -0.707000
     13 H1           4.5490    89.4990    82.1940 h2         1 GAL       0.019700
     14 H2           4.6590    92.5380    82.7190 h1         1 GAL       0.088700
     15 H3           4.1950    91.0460    80.0770 h1         1 GAL       0.037700
     16 H4           6.3780    91.8670    79.3770 h1         1 GAL       0.031700
     17 H5           6.2940    89.7030    80.5560 h1         1 GAL       0.046700
     18 H61          8.5530    90.5160    79.9010 h1         1 GAL       0.026700
     19 H62          8.7500    91.2830    81.4840 h1         1 GAL       0.026700
     20 HO1          5.7500    90.1120    84.3800 ho         1 GAL       0.518000
     21 HO2          2.4770    92.3280    81.6380 ho         1 GAL       0.519000
     22 HO3          4.8010    93.7790    80.3190 ho         1 GAL       0.506000
     23 HO4          7.6540    93.1470    80.7780 ho         1 GAL       0.501000
     24 HO6          9.7810    89.2430    81.4430 ho         1 GAL       0.506000
@<TRIPOS>BOND
     1     1     2 1   
     2     1     7 1   
     3     1    11 1   
     4     1    13 1   
     5     2     3 1   
     6     2     8 1   
     7     2    14 1   
     8     3     4 1   
     9     3     9 1   
    10     3    15 1   
    11     4     5 1   
    12     4    10 1   
    13     4    16 1   
    14     5     6 1   
    15     5    11 1   
    16     5    17 1   
    17     6    12 1   
    18     6    18 1   
    19     6    19 1   
    20     7    20 1   
    21     8    21 1   
    22     9    22 1   
    23    10    23 1   
    24    12    24 1   
@<TRIPOS>SUBSTRUCTURE
     1 GAL         1 TEMP              0 ****  ****    0 ROOT
