@<TRIPOS>MOLECULE
GAM
   20    19     1     0     0
SMALL
bcc


@<TRIPOS>ATOM
      1 CB2         -1.2060     1.4880    -1.1300 c3         1 GAM      -0.036100
      2 CB1          0.2740    -0.0460     0.2300 c3         1 GAM      -0.076400
      3 CG          -0.5280     0.0830     1.5160 c3         1 GAM      -0.200400
      4 CD           0.2800    -0.1000     2.8150 c          1 GAM       0.922600
      5 OE1         -0.3840    -0.3450     3.8450 o          1 GAM      -0.868800
      6 OE2          1.5180     0.0370     2.7570 o          1 GAM      -0.868800
      7 C            0.4940    -0.0410    -2.2330 c          1 GAM       0.944600
      8 O            1.0180     0.9930    -2.6910 o          1 GAM      -0.858800
      9 OXT          0.7540    -1.2120    -2.5850 o          1 GAM      -0.858800
     10 CA          -0.5320     0.1220    -1.0800 c3         1 GAM       0.032200
     11 N           -1.5710    -0.8970    -1.2500 n8         1 GAM      -0.891800
     12 H21         -2.0020     1.5660    -0.3850 hc         1 GAM       0.006700
     13 H22         -0.4960     2.2920    -0.9400 hc         1 GAM       0.006700
     14 H23         -1.6590     1.6650    -2.1070 hc         1 GAM       0.006700
     15 H11          0.7560    -1.0290     0.2040 hc         1 GAM       0.047200
     16 H12          1.0850     0.6870     0.2400 hc         1 GAM       0.047200
     17 HG1         -0.9990     1.0710     1.5670 hc         1 GAM       0.004700
     18 HG2         -1.3570    -0.6320     1.5300 hc         1 GAM       0.004700
     19 HN1         -1.1210    -1.8020    -1.3020 hn         1 GAM       0.319300
     20 HN2         -2.1600    -0.9160    -0.4270 hn         1 GAM       0.319300
@<TRIPOS>BOND
     1     1    10 1   
     2     1    12 1   
     3     1    13 1   
     4     1    14 1   
     5     2     3 1   
     6     2    10 1   
     7     2    15 1   
     8     2    16 1   
     9     3     4 1   
    10     3    17 1   
    11     3    18 1   
    12     4     5 1   
    13     4     6 1   
    14     7     8 1   
    15     7     9 1   
    16     7    10 1   
    17    10    11 1   
    18    11    19 1   
    19    11    20 1   
@<TRIPOS>SUBSTRUCTURE
     1 GAM         1 TEMP              0 ****  ****    0 ROOT
