@<TRIPOS>MOLECULE
GAM
   20    19     1     0     0
SMALL
No Charge or Current Charge


@<TRIPOS>ATOM
      1 CB2         -1.1010     1.5650    -1.2140 c3         1 GAM      -0.036100
      2 CB1          0.2020    -0.0790     0.2790 c3         1 GAM      -0.076400
      3 CG          -0.6090     0.1650     1.5890 c3         1 GAM      -0.200400
      4 CD           0.2900    -0.0780     2.8180 c          1 GAM       0.712000
      5 OE1          0.3470    -1.2070     3.2800 o          1 GAM      -0.763500
      6 OE2          0.9460     0.8580     3.2500 o          1 GAM      -0.763500
      7 C            0.5050    -0.1810    -2.2520 c          1 GAM       0.734000
      8 O            1.1100     0.7500    -2.7720 o          1 GAM      -0.753500
      9 OXT          0.6040    -1.3310    -2.6670 o          1 GAM      -0.753500
     10 CA          -0.5540     0.1110    -1.0790 c3         1 GAM       0.032200
     11 N           -1.7450    -0.8140    -1.0840 n8         1 GAM      -1.002200
     12 H21         -1.9020     1.7660    -0.4920 hc         1 GAM       0.006700
     13 H22         -0.3080     2.3030    -1.0450 hc         1 GAM       0.006700
     14 H23         -1.5120     1.7340    -2.2170 hc         1 GAM       0.006700
     15 H11          0.6120    -1.0970     0.3100 hc         1 GAM       0.047200
     16 H12          1.0720     0.5900     0.2840 hc         1 GAM       0.047200
     17 HG1         -0.9300     1.2140     1.5640 hc         1 GAM       0.004700
     18 HG2         -1.4400    -0.5510     1.5870 hc         1 GAM       0.004700
     19 HN1         -1.4300    -1.7200    -1.4520 hn         1 GAM       0.374500
     20 HN2         -1.9930    -1.0150    -0.1110 hn         1 GAM       0.374500
@<TRIPOS>BOND
     1     1    10 1   
     2     1    12 1   
     3     1    13 1   
     4     1    14 1   
     5     2     3 1   
     6     2    10 1   
     7     2    15 1   
     8     2    16 1   
     9     3     4 1   
    10     3    17 1   
    11     3    18 1   
    12     4     5 1   
    13     4     6 1   
    14     7     8 1   
    15     7     9 1   
    16     7    10 1   
    17    10    11 1   
    18    11    19 1   
    19    11    20 1   
@<TRIPOS>SUBSTRUCTURE
     1 GAM         1 TEMP              0 ****  ****    0 ROOT
