@<TRIPOS>MOLECULE
GAQ
   17    16     1     0     0
SMALL
bcc


@<TRIPOS>ATOM
      1 O5           1.4560    -2.7200    -0.1020 o          1 GAQ      -0.514100
      2 C5           1.4350    -1.5200     0.0220 c          1 GAQ       0.571900
      3 C4           0.5670    -0.5890    -0.7590 c3         1 GAQ      -0.201400
      4 C3          -0.3540    -1.2470    -1.7720 c3         1 GAQ      -0.062400
      5 C2          -1.1960    -0.2250    -2.5270 c3         1 GAQ      -0.119400
      6 C1          -2.1110    -0.8860    -3.5470 c3         1 GAQ       0.133400
      7 O1          -2.9300     0.0310    -4.2410 oh         1 GAQ      -0.591800
      8 H55          2.0910    -1.0200     0.7580 h4         1 GAQ      -0.016800
      9 H41          0.0030     0.0060    -0.0310 hc         1 GAQ       0.062700
     10 H42          1.2370     0.1350    -1.2410 hc         1 GAQ       0.062700
     11 H31          0.2370    -1.8310    -2.4820 hc         1 GAQ       0.052700
     12 H32         -1.0130    -1.9570    -1.2640 hc         1 GAQ       0.052700
     13 H21         -1.7980     0.3560    -1.8210 hc         1 GAQ       0.043700
     14 H22         -0.5360     0.4860    -3.0370 hc         1 GAQ       0.043700
     15 H1          -2.7860    -1.5790    -3.0390 h1         1 GAQ       0.043200
     16 H11         -1.5060    -1.4860    -4.2400 h1         1 GAQ       0.043200
     17 HO1         -2.3580     0.6290    -4.7310 ho         1 GAQ       0.398000
@<TRIPOS>BOND
     1     1     2 2   
     2     2     3 1   
     3     2     8 1   
     4     3     4 1   
     5     3     9 1   
     6     3    10 1   
     7     4     5 1   
     8     4    11 1   
     9     4    12 1   
    10     5     6 1   
    11     5    13 1   
    12     5    14 1   
    13     6     7 1   
    14     6    15 1   
    15     6    16 1   
    16     7    17 1   
@<TRIPOS>SUBSTRUCTURE
     1 GAQ         1 TEMP              0 ****  ****    0 ROOT
