@<TRIPOS>MOLECULE
GAQ
   17    16     1     0     0
SMALL
No Charge or Current Charge


@<TRIPOS>ATOM
      1 O5           2.3940    -2.2190    -0.3770 o          1 GAQ      -0.514100
      2 C5           1.4450    -1.5590     0.0320 c          1 GAQ       0.571900
      3 C4           0.6980    -0.5390    -0.8330 c3         1 GAQ      -0.201400
      4 C3          -0.3790    -1.2170    -1.7120 c3         1 GAQ      -0.062400
      5 C2          -1.1650    -0.2110    -2.5820 c3         1 GAQ      -0.119400
      6 C1          -2.2380    -0.8860    -3.4600 c3         1 GAQ       0.156600
      7 O1          -2.9290     0.1080    -4.2250 oh         1 GAQ      -0.654000
      8 H55          1.0600    -1.6850     1.0680 h4         1 GAQ      -0.016800
      9 H41          0.1880     0.1680    -0.1680 hc         1 GAQ       0.062700
     10 H42          1.4150    -0.0180    -1.4790 hc         1 GAQ       0.062700
     11 H31          0.1000    -1.9600    -2.3630 hc         1 GAQ       0.052700
     12 H32         -1.0820    -1.7630    -1.0680 hc         1 GAQ       0.052700
     13 H21         -1.6470     0.5290    -1.9310 hc         1 GAQ       0.043700
     14 H22         -0.4610     0.3340    -3.2240 hc         1 GAQ       0.043700
     15 H1          -2.9440    -1.4290    -2.8160 h1         1 GAQ       0.043200
     16 H11         -1.7590    -1.6180    -4.1250 h1         1 GAQ       0.043200
     17 HO1         -2.2580     0.5500    -4.7910 ho         1 GAQ       0.437000
@<TRIPOS>BOND
     1     1     2 2   
     2     2     3 1   
     3     2     8 1   
     4     3     4 1   
     5     3     9 1   
     6     3    10 1   
     7     4     5 1   
     8     4    11 1   
     9     4    12 1   
    10     5     6 1   
    11     5    13 1   
    12     5    14 1   
    13     6     7 1   
    14     6    15 1   
    15     6    16 1   
    16     7    17 1   
@<TRIPOS>SUBSTRUCTURE
     1 GAQ         1 TEMP              0 ****  ****    0 ROOT
