@<TRIPOS>MOLECULE
GAS
   48    50     1     0     0
SMALL
abcg2


@<TRIPOS>ATOM
      1 C1          -2.4230     1.2370     1.5500 ca         1 GAS      -0.091750
      2 C2          -3.4430     2.0390     2.0420 ca         1 GAS      -0.117500
      3 C3          -3.3770     2.5420     3.3350 ca         1 GAS      -0.117000
      4 C4          -2.2800     2.2420     4.1310 ca         1 GAS      -0.117500
      5 C5          -1.2570     1.4450     3.6340 ca         1 GAS      -0.091750
      6 C6          -1.3170     0.9330     2.3420 ca         1 GAS      -0.068300
      7 C7          -0.2080     0.0310     1.8410 c3         1 GAS       0.327100
      8 N7           0.1220     0.3860     0.4790 nu         1 GAS      -0.906400
      9 C1A         -0.6470    -1.4150     1.9640 ca         1 GAS      -0.068300
     10 C2A         -0.3570    -2.1190     3.1280 ca         1 GAS      -0.091750
     11 C3A         -0.8050    -3.4210     3.3020 ca         1 GAS      -0.117500
     12 C4A         -1.5500    -4.0400     2.3060 ca         1 GAS      -0.117000
     13 C5A         -1.8420    -3.3430     1.1410 ca         1 GAS      -0.117500
     14 C6A         -1.3950    -2.0390     0.9730 ca         1 GAS      -0.091750
     15 C8           1.2490    -0.1500    -0.0990 c2         1 GAS       0.790100
     16 N8           1.9790    -0.9720     0.5400 n2         1 GAS      -0.671900
     17 C9           3.0260    -1.6980    -0.1400 c3         1 GAS      -0.010200
     18 C10          4.3170    -0.9000    -0.4380 c          1 GAS       0.713000
     19 O1           4.1720     0.1980    -1.0420 o          1 GAS      -0.715000
     20 O2           5.3980    -1.4030    -0.1060 o          1 GAS      -0.715000
     21 N11          1.5340     0.2890    -1.3850 nu         1 GAS      -0.979200
     22 C1B          0.7000     0.7280    -2.3750 ca         1 GAS       0.394000
     23 C2B          1.2810     1.4100    -3.4600 ca         1 GAS      -0.209500
     24 C3B          0.5180     1.8490    -4.5170 ca         1 GAS      -0.029000
     25 C4B         -0.8620     1.6240    -4.5300 ca         1 GAS      -0.131000
     26 C7B         -1.6560     2.0780    -5.6180 cg         1 GAS       0.362000
     27 N7B         -2.2990     2.4430    -6.5040 n1         1 GAS      -0.526000
     28 C5B         -1.4490     0.9410    -3.4620 ca         1 GAS      -0.029000
     29 C6B         -0.6860     0.4970    -2.4040 ca         1 GAS      -0.209500
     30 H1          -2.4980     0.8480     0.5420 ha         1 GAS       0.116250
     31 H2          -4.2920     2.2700     1.4120 ha         1 GAS       0.104000
     32 H3          -4.1740     3.1670     3.7180 ha         1 GAS       0.101500
     33 H4          -2.2150     2.6320     5.1380 ha         1 GAS       0.104000
     34 H5          -0.4010     1.2220     4.2600 ha         1 GAS       0.116250
     35 H7           0.6610     0.1650     2.4970 h1         1 GAS       0.064700
     36 HN7         -0.0570     1.3510     0.2400 hn         1 GAS       0.470000
     37 H2A          0.2280    -1.6440     3.9070 ha         1 GAS       0.116250
     38 H3A         -0.5660    -3.9550     4.2130 ha         1 GAS       0.104000
     39 H4A         -1.8990    -5.0560     2.4380 ha         1 GAS       0.101500
     40 H5A         -2.4210    -3.8160     0.3570 ha         1 GAS       0.104000
     41 H6A         -1.6270    -1.5110     0.0570 ha         1 GAS       0.116250
     42 H91          2.6760    -2.0950    -1.1060 h1         1 GAS       0.038200
     43 H92          3.2860    -2.5640     0.4710 h1         1 GAS       0.038200
     44 HN1          2.5630     0.3540    -1.5190 hn         1 GAS       0.584000
     45 H2B          2.3470     1.5950    -3.4630 ha         1 GAS       0.131000
     46 H3B          0.9900     2.3720    -5.3380 ha         1 GAS       0.106000
     47 H5B         -2.5140     0.7480    -3.4640 ha         1 GAS       0.106000
     48 H6B         -1.1690    -0.0430    -1.6040 ha         1 GAS       0.131000
@<TRIPOS>BOND
     1     1     2 ar  
     2     1     6 ar  
     3     1    30 1   
     4     2     3 ar  
     5     2    31 1   
     6     3     4 ar  
     7     3    32 1   
     8     4     5 ar  
     9     4    33 1   
    10     5     6 ar  
    11     5    34 1   
    12     6     7 1   
    13     7     8 1   
    14     7     9 1   
    15     7    35 1   
    16     8    15 1   
    17     8    36 1   
    18     9    10 ar  
    19     9    14 ar  
    20    10    11 ar  
    21    10    37 1   
    22    11    12 ar  
    23    11    38 1   
    24    12    13 ar  
    25    12    39 1   
    26    13    14 ar  
    27    13    40 1   
    28    14    41 1   
    29    15    16 2   
    30    15    21 1   
    31    16    17 1   
    32    17    18 1   
    33    17    42 1   
    34    17    43 1   
    35    18    19 1   
    36    18    20 1   
    37    21    22 1   
    38    21    44 1   
    39    22    23 ar  
    40    22    29 ar  
    41    23    24 ar  
    42    23    45 1   
    43    24    25 ar  
    44    24    46 1   
    45    25    26 1   
    46    25    28 ar  
    47    26    27 3   
    48    28    29 ar  
    49    28    47 1   
    50    29    48 1   
@<TRIPOS>SUBSTRUCTURE
     1 GAS         1 TEMP              0 ****  ****    0 ROOT
