@<TRIPOS>MOLECULE
GAS
   48    50     1     0     0
SMALL
No Charge or Current Charge


@<TRIPOS>ATOM
      1 C1          -2.5880     1.2170     2.3610 ca         1 GAS      -0.091750
      2 C2          -3.4020     2.0820     3.1130 ca         1 GAS      -0.117500
      3 C3          -2.9260     2.6290     4.3160 ca         1 GAS      -0.117000
      4 C4          -1.6350     2.3100     4.7670 ca         1 GAS      -0.117500
      5 C5          -0.8200     1.4450     4.0160 ca         1 GAS      -0.091750
      6 C6          -1.2880     0.8910     2.8060 ca         1 GAS      -0.068300
      7 C7          -0.3940    -0.0520     1.9990 c3         1 GAS       0.327100
      8 N7          -0.1570     0.5070     0.6680 nu         1 GAS      -0.906400
      9 C1A         -0.9760    -1.4710     1.9500 ca         1 GAS      -0.068300
     10 C2A         -0.6160    -2.3990     2.9490 ca         1 GAS      -0.091750
     11 C3A         -1.1420    -3.7030     2.9380 ca         1 GAS      -0.117500
     12 C4A         -2.0360    -4.0930     1.9280 ca         1 GAS      -0.117000
     13 C5A         -2.4050    -3.1780     0.9300 ca         1 GAS      -0.117500
     14 C6A         -1.8800    -1.8730     0.9400 ca         1 GAS      -0.091750
     15 C8           0.9220     0.2670    -0.0720 c2         1 GAS       0.790100
     16 N8           1.6910    -0.7390     0.0390 n2         1 GAS      -0.671900
     17 C9           2.9050    -0.9480    -0.8080 c3         1 GAS      -0.010200
     18 C10          4.0240     0.1360    -0.6350 c          1 GAS       0.713000
     19 O1           3.7280     1.3090    -0.8370 o          1 GAS      -0.715000
     20 O2           5.1350    -0.2260    -0.2720 o          1 GAS      -0.715000
     21 N11          0.9640     1.1680    -1.0470 nu         1 GAS      -0.979200
     22 C1B          0.5940     0.9630    -2.3620 ca         1 GAS       0.394000
     23 C2B          1.4790     1.2980    -3.3970 ca         1 GAS      -0.209500
     24 C3B          1.1130     1.0950    -4.7390 ca         1 GAS      -0.029000
     25 C4B         -0.1510     0.5570    -5.0490 ca         1 GAS      -0.131000
     26 C7B         -0.5290     0.3480    -6.4190 cg         1 GAS       0.362000
     27 N7B         -0.8410     0.1870    -7.5330 n1         1 GAS      -0.526000
     28 C5B         -1.0430     0.2290    -4.0120 ca         1 GAS      -0.029000
     29 C6B         -0.6680     0.4350    -2.6730 ca         1 GAS      -0.209500
     30 H1          -2.9680     0.8010     1.4320 ha         1 GAS       0.116250
     31 H2          -4.4020     2.3280     2.7620 ha         1 GAS       0.104000
     32 H3          -3.5570     3.2980     4.8970 ha         1 GAS       0.101500
     33 H4          -1.2650     2.7320     5.6990 ha         1 GAS       0.104000
     34 H5           0.1780     1.2060     4.3770 ha         1 GAS       0.116250
     35 H7           0.5730    -0.1100     2.5190 h1         1 GAS       0.064700
     36 HN7         -0.5590     1.4080     0.4590 hn         1 GAS       0.470000
     37 H2A          0.0730    -2.1090     3.7390 ha         1 GAS       0.116250
     38 H3A         -0.8560    -4.4110     3.7140 ha         1 GAS       0.104000
     39 H4A         -2.4420    -5.1020     1.9200 ha         1 GAS       0.101500
     40 H5A         -3.0980    -3.4770     0.1470 ha         1 GAS       0.104000
     41 H6A         -2.1770    -1.1770     0.1600 ha         1 GAS       0.116250
     42 H91          2.6350    -0.9680    -1.8720 h1         1 GAS       0.038200
     43 H92          3.3510    -1.9250    -0.5810 h1         1 GAS       0.038200
     44 HN1          1.9350     1.4920    -1.0350 hn         1 GAS       0.584000
     45 H2B          2.4540     1.7180    -3.1700 ha         1 GAS       0.131000
     46 H3B          1.8100     1.3570    -5.5330 ha         1 GAS       0.106000
     47 H5B         -2.0240    -0.1850    -4.2390 ha         1 GAS       0.106000
     48 H6B         -1.3610     0.1820    -1.8770 ha         1 GAS       0.131000
@<TRIPOS>BOND
     1     1     2 ar  
     2     1     6 ar  
     3     1    30 1   
     4     2     3 ar  
     5     2    31 1   
     6     3     4 ar  
     7     3    32 1   
     8     4     5 ar  
     9     4    33 1   
    10     5     6 ar  
    11     5    34 1   
    12     6     7 1   
    13     7     8 1   
    14     7     9 1   
    15     7    35 1   
    16     8    15 1   
    17     8    36 1   
    18     9    10 ar  
    19     9    14 ar  
    20    10    11 ar  
    21    10    37 1   
    22    11    12 ar  
    23    11    38 1   
    24    12    13 ar  
    25    12    39 1   
    26    13    14 ar  
    27    13    40 1   
    28    14    41 1   
    29    15    16 2   
    30    15    21 1   
    31    16    17 1   
    32    17    18 1   
    33    17    42 1   
    34    17    43 1   
    35    18    19 1   
    36    18    20 1   
    37    21    22 1   
    38    21    44 1   
    39    22    23 ar  
    40    22    29 ar  
    41    23    24 ar  
    42    23    45 1   
    43    24    25 ar  
    44    24    46 1   
    45    25    26 1   
    46    25    28 ar  
    47    26    27 3   
    48    28    29 ar  
    49    28    47 1   
    50    29    48 1   
@<TRIPOS>SUBSTRUCTURE
     1 GAS         1 TEMP              0 ****  ****    0 ROOT
