@<TRIPOS>MOLECULE
GAT
   36    37     1     0     0
SMALL
bcc


@<TRIPOS>ATOM
      1 C1          -0.6030     0.5170    -0.5790 c6         1 GAT       0.313900
      2 C2          -1.3370     0.1910    -1.8830 c6         1 GAT       0.090100
      3 C3          -0.5910    -0.8860    -2.6600 c6         1 GAT       0.116100
      4 C4           0.8600    -0.4590    -2.8720 c6         1 GAT       0.124100
      5 C5           1.4770    -0.1330    -1.5190 c6         1 GAT       0.144100
      6 C6           2.9030     0.3640    -1.6270 c3         1 GAT       0.148400
      7 C7          -0.5730    -0.3410     1.6180 ca         1 GAT       0.051100
      8 C8           0.6680    -0.1000     2.1960 ca         1 GAT      -0.099500
      9 C9           0.7700     0.1180     3.5620 ca         1 GAT      -0.187500
     10 C10         -0.3610     0.1020     4.3850 ca         1 GAT       0.140600
     11 C11         -1.6020    -0.1450     3.7880 ca         1 GAT      -0.187500
     12 C12         -1.7040    -0.3580     2.4230 ca         1 GAT      -0.099500
     13 N1          -0.2620     0.3730     5.7370 nv         1 GAT      -0.818200
     14 O1          -0.7110    -0.5930     0.2770 os         1 GAT      -0.352900
     15 O2          -2.6500    -0.2580    -1.6620 oh         1 GAT      -0.588800
     16 O3          -1.1620    -1.1040    -3.9280 oh         1 GAT      -0.611800
     17 O4           0.9570     0.6690    -3.7060 oh         1 GAT      -0.593800
     18 O5           0.7230     0.8580    -0.8330 os         1 GAT      -0.398600
     19 O6           3.4650     0.3810    -0.3350 oh         1 GAT      -0.598800
     20 H1          -1.0480     1.4000    -0.1050 h2         1 GAT       0.076700
     21 H2          -1.3330     1.1120    -2.4790 h1         1 GAT       0.062700
     22 H3          -0.5850    -1.8150    -2.0710 h1         1 GAT       0.071700
     23 H4           1.4160    -1.3110    -3.2920 h1         1 GAT       0.051700
     24 H5           1.4920    -1.0680    -0.9430 h1         1 GAT       0.066700
     25 H61          3.4480    -0.3150    -2.2960 h1         1 GAT       0.037200
     26 H62          2.9190     1.3570    -2.0910 h1         1 GAT       0.037200
     27 H8           1.5640    -0.0870     1.5890 ha         1 GAT       0.149000
     28 H9           1.7460     0.3040     3.9960 ha         1 GAT       0.131000
     29 H11         -2.4970    -0.1660     4.4000 ha         1 GAT       0.131000
     30 H12         -2.6730    -0.5490     1.9790 ha         1 GAT       0.149000
     31 HN11        -1.0110     0.0070     6.3030 hn         1 GAT       0.388300
     32 HN12         0.6350     0.1750     6.1500 hn         1 GAT       0.388300
     33 HO2         -3.2130     0.5000    -1.4810 ho         1 GAT       0.411000
     34 HO3         -2.1180    -1.1740    -3.8240 ho         1 GAT       0.429000
     35 HO4          0.4340     0.4960    -4.4970 ho         1 GAT       0.422000
     36 HO6          4.3520     0.7470    -0.3990 ho         1 GAT       0.406000
@<TRIPOS>BOND
     1     1     2 1   
     2     1    14 1   
     3     1    18 1   
     4     1    20 1   
     5     2     3 1   
     6     2    15 1   
     7     2    21 1   
     8     3     4 1   
     9     3    16 1   
    10     3    22 1   
    11     4     5 1   
    12     4    17 1   
    13     4    23 1   
    14     5     6 1   
    15     5    18 1   
    16     5    24 1   
    17     6    19 1   
    18     6    25 1   
    19     6    26 1   
    20     7     8 ar  
    21     7    12 ar  
    22     7    14 1   
    23     8     9 ar  
    24     8    27 1   
    25     9    10 ar  
    26     9    28 1   
    27    10    11 ar  
    28    10    13 1   
    29    11    12 ar  
    30    11    29 1   
    31    12    30 1   
    32    13    31 1   
    33    13    32 1   
    34    15    33 1   
    35    16    34 1   
    36    17    35 1   
    37    19    36 1   
@<TRIPOS>SUBSTRUCTURE
     1 GAT         1 TEMP              0 ****  ****    0 ROOT
