@<TRIPOS>MOLECULE
GAT
   36    37     1     0     0
SMALL
No Charge or Current Charge


@<TRIPOS>ATOM
      1 C1          -0.6440     0.8390    -0.7310 c6         1 GAT       0.360300
      2 C2          -1.2950     0.5850    -2.1400 c6         1 GAT       0.113300
      3 C3          -0.7330    -0.7330    -2.7590 c6         1 GAT       0.139300
      4 C4           0.8250    -0.7260    -2.7870 c6         1 GAT       0.147300
      5 C5           1.3520    -0.4270    -1.3450 c6         1 GAT       0.167300
      6 C6           2.9140    -0.3520    -1.2830 c3         1 GAT       0.171600
      7 C7          -0.7780    -0.0320     1.5810 ca         1 GAT       0.051100
      8 C8          -0.0860     1.0730     2.1300 ca         1 GAT      -0.081500
      9 C9           0.1820     1.1200     3.5110 ca         1 GAT      -0.169500
     10 C10         -0.2350     0.0750     4.3500 ca         1 GAT       0.279000
     11 C11         -0.9230    -1.0200     3.8090 ca         1 GAT      -0.169500
     12 C12         -1.1940    -1.0730     2.4290 ca         1 GAT      -0.081500
     13 N1           0.0280     0.1260     5.6910 nv         1 GAT      -1.067000
     14 O1          -1.0830    -0.1440     0.2370 os         1 GAT      -0.376100
     15 O2          -2.7470     0.5210    -2.1040 oh         1 GAT      -0.711000
     16 O3          -1.2600    -0.9070    -4.0890 oh         1 GAT      -0.674000
     17 O4           1.2740     0.2410    -3.7590 oh         1 GAT      -0.716000
     18 O5           0.8000     0.8190    -0.8380 os         1 GAT      -0.445000
     19 O6           3.4250    -0.1330     0.0490 oh         1 GAT      -0.721000
     20 H1          -0.9610     1.8360    -0.3900 h2         1 GAT       0.076700
     21 H2          -0.9870     1.4220    -2.7840 h1         1 GAT       0.062700
     22 H3          -1.0540    -1.5700    -2.1190 h1         1 GAT       0.071700
     23 H4           1.1670    -1.7310    -3.0770 h1         1 GAT       0.051700
     24 H5           1.0410    -1.2480    -0.6810 h1         1 GAT       0.066700
     25 H61          3.3150    -1.2910    -1.6880 h1         1 GAT       0.037200
     26 H62          3.2470     0.4560    -1.9490 h1         1 GAT       0.037200
     27 H8           0.2520     1.8980     1.5080 ha         1 GAT       0.131000
     28 H9           0.7140     1.9710     3.9260 ha         1 GAT       0.113000
     29 H11         -1.2510    -1.8320     4.4530 ha         1 GAT       0.113000
     30 H12         -1.7300    -1.9240     2.0150 ha         1 GAT       0.131000
     31 HN11        -0.1560    -0.6870     6.2770 hn         1 GAT       0.443500
     32 HN12         0.6390     0.8500     6.0650 hn         1 GAT       0.443500
     33 HO2         -3.0730     1.3280    -1.6390 ho         1 GAT       0.510000
     34 HO3         -2.2130    -0.6640    -4.0120 ho         1 GAT       0.468000
     35 HO4          0.6280     0.1540    -4.5020 ho         1 GAT       0.521000
     36 HO6          4.4000    -0.0130    -0.0340 ho         1 GAT       0.505000
@<TRIPOS>BOND
     1     1     2 1   
     2     1    14 1   
     3     1    18 1   
     4     1    20 1   
     5     2     3 1   
     6     2    15 1   
     7     2    21 1   
     8     3     4 1   
     9     3    16 1   
    10     3    22 1   
    11     4     5 1   
    12     4    17 1   
    13     4    23 1   
    14     5     6 1   
    15     5    18 1   
    16     5    24 1   
    17     6    19 1   
    18     6    25 1   
    19     6    26 1   
    20     7     8 ar  
    21     7    12 ar  
    22     7    14 1   
    23     8     9 ar  
    24     8    27 1   
    25     9    10 ar  
    26     9    28 1   
    27    10    11 ar  
    28    10    13 1   
    29    11    12 ar  
    30    11    29 1   
    31    12    30 1   
    32    13    31 1   
    33    13    32 1   
    34    15    33 1   
    35    16    34 1   
    36    17    35 1   
    37    19    36 1   
@<TRIPOS>SUBSTRUCTURE
     1 GAT         1 TEMP              0 ****  ****    0 ROOT
