@<TRIPOS>MOLECULE
GAU
   19    18     1     0     0
SMALL
bcc


@<TRIPOS>ATOM
      1 N            1.6090     1.4130    -0.6290 n8         1 GAU      -0.865800
      2 CA           1.4330     0.2240     0.1940 c3         1 GAU       0.148500
      3 CB           0.0690    -0.4070    -0.0720 c3         1 GAU      -0.046400
      4 CG          -1.1000     0.4970     0.2760 c3         1 GAU      -0.200400
      5 CD          -2.4990    -0.0710    -0.0150 c          1 GAU       0.926600
      6 OE2         -3.4620     0.6290     0.3650 o          1 GAU      -0.851800
      7 OE1         -2.5770    -1.1660    -0.6070 o          1 GAU      -0.851800
      8 C            2.5290    -0.8190     0.0080 c3         1 GAU       0.089400
      9 OXT          3.7800    -0.2370     0.3110 oh         1 GAU      -0.613800
     10 H            2.5360     1.7930    -0.4820 hn         1 GAU       0.325800
     11 H2           1.5760     1.1450    -1.6080 hn         1 GAU       0.325800
     12 HA           1.4620     0.5490     1.2430 h1         1 GAU       0.060700
     13 HB2          0.0150    -0.7020    -1.1260 hc         1 GAU       0.036200
     14 HB3         -0.0050    -1.3350     0.5020 hc         1 GAU       0.036200
     15 HG2         -1.0520     0.7630     1.3380 hc         1 GAU       0.026700
     16 HG3         -1.0000     1.4490    -0.2550 hc         1 GAU       0.026700
     17 HO1          2.3230    -1.6810     0.6570 h1         1 GAU       0.019700
     18 HO2          2.4980    -1.1830    -1.0290 h1         1 GAU       0.019700
     19 HXT          4.4700    -0.8640     0.0790 ho         1 GAU       0.389000
@<TRIPOS>BOND
     1     1     2 1   
     2     1    10 1   
     3     1    11 1   
     4     2     3 1   
     5     2     8 1   
     6     2    12 1   
     7     3     4 1   
     8     3    13 1   
     9     3    14 1   
    10     4     5 1   
    11     4    15 1   
    12     4    16 1   
    13     5     6 1   
    14     5     7 1   
    15     8     9 1   
    16     8    17 1   
    17     8    18 1   
    18     9    19 1   
@<TRIPOS>SUBSTRUCTURE
     1 GAU         1 TEMP              0 ****  ****    0 ROOT
