@<TRIPOS>MOLECULE
GAU
   19    18     1     0     0
SMALL
No Charge or Current Charge


@<TRIPOS>ATOM
      1 N            1.7020     1.3690    -0.7660 n8         1 GAU      -0.865800
      2 CA           1.4170     0.2750     0.1910 c3         1 GAU       0.148500
      3 CB           0.0140    -0.3420    -0.0520 c3         1 GAU      -0.046400
      4 CG          -1.1720     0.6410     0.1450 c3         1 GAU      -0.200400
      5 CD          -2.5110    -0.1010    -0.0130 c          1 GAU       0.926600
      6 OE2         -3.0090    -0.6240     0.9760 o          1 GAU      -0.851800
      7 OE1         -3.0050    -0.1860    -1.1300 o          1 GAU      -0.851800
      8 C            2.5410    -0.8020     0.1400 c3         1 GAU       0.089400
      9 OXT          3.8340    -0.2140     0.3610 oh         1 GAU      -0.613800
     10 H            2.7000     1.5880    -0.6830 hn         1 GAU       0.325800
     11 H2           1.6090     1.0030    -1.7170 hn         1 GAU       0.325800
     12 HA           1.4280     0.7080     1.2020 h1         1 GAU       0.060700
     13 HB2         -0.0290    -0.7640    -1.0650 hc         1 GAU       0.036200
     14 HB3         -0.1170    -1.1850     0.6390 hc         1 GAU       0.036200
     15 HG2         -1.0730     1.0310     1.1650 hc         1 GAU       0.026700
     16 HG3         -1.0730     1.4070    -0.6330 hc         1 GAU       0.026700
     17 HO1          2.3400    -1.5640     0.9060 h1         1 GAU       0.019700
     18 HO2          2.5180    -1.3030    -0.8370 h1         1 GAU       0.019700
     19 HXT          4.4930    -0.9400     0.3200 ho         1 GAU       0.389000
@<TRIPOS>BOND
     1     1     2 1   
     2     1    10 1   
     3     1    11 1   
     4     2     3 1   
     5     2     8 1   
     6     2    12 1   
     7     3     4 1   
     8     3    13 1   
     9     3    14 1   
    10     4     5 1   
    11     4    15 1   
    12     4    16 1   
    13     5     6 1   
    14     5     7 1   
    15     8     9 1   
    16     8    17 1   
    17     8    18 1   
    18     9    19 1   
@<TRIPOS>SUBSTRUCTURE
     1 GAU         1 TEMP              0 ****  ****    0 ROOT
