@<TRIPOS>MOLECULE
GAW
   73    76     1     0     0
SMALL
abcg2


@<TRIPOS>ATOM
      1 C10          5.9960    -4.3110    25.7440 ca         1 GAW       0.626900
      2 C13          4.9400    -2.6240    27.6530 ca         1 GAW      -0.162000
      3 C15          2.8850    -1.8660    28.7310 c3         1 GAW       0.098300
      4 C20          3.5090     1.2390    28.9190 c3         1 GAW      -0.083100
      5 C21          3.7790    -0.0250    31.1420 ca         1 GAW      -0.079300
      6 C22          4.5160    -0.7810    32.0600 ca         1 GAW      -0.031000
      7 C24          2.6550    -0.8010    33.6030 ca         1 GAW      -0.016000
      8 C26          2.4770     0.3270    31.4760 ca         1 GAW      -0.031000
      9 C02          7.2970    -3.8770    30.0480 ca         1 GAW      -0.044300
     10 C03          7.4800    -4.1830    31.3980 ca         1 GAW      -0.118000
     11 C04          6.4200    -4.5740    32.2070 ca         1 GAW      -0.099000
     12 C05          5.1400    -4.6560    31.6740 ca         1 GAW      -0.125000
     13 C06          4.9380    -4.3490    30.3350 ca         1 GAW      -0.095000
     14 C07          6.0010    -3.9680    29.5140 cp         1 GAW      -0.051000
     15 C08          5.7390    -3.6970    28.0770 cp         1 GAW       0.066000
     16 C09          6.2620    -4.5380    27.1130 ca         1 GAW      -0.223000
     17 C12          4.7210    -2.4760    26.2960 ca         1 GAW       0.385900
     18 C18          4.4510     0.4660    29.8600 c3         1 GAW      -0.071700
     19 C19          5.5660     1.4410    30.2920 c3         1 GAW      -0.083100
     20 C23          3.9660    -1.1420    33.2800 ca         1 GAW      -0.196300
     21 C25          1.9170    -0.0730    32.6880 ca         1 GAW      -0.196300
     22 C27          0.4920     0.3070    32.9740 c3         1 GAW       0.347300
     23 C31          4.7710    -1.8950    34.3030 c3         1 GAW       0.347300
     24 C36          7.3520    -6.2610    25.0300 c6         1 GAW       0.190300
     25 C37          6.5230    -7.5580    25.0490 c6         1 GAW       0.140300
     26 C39          5.7370    -6.6130    22.9720 c6         1 GAW       0.140300
     27 C40          5.9000    -5.1440    23.4260 c6         1 GAW       0.190300
     28 F28          0.3140     1.6500    32.9650 f          1 GAW      -0.109167
     29 F29          0.0610    -0.1360    34.1700 f          1 GAW      -0.109167
     30 F30         -0.3550    -0.1920    32.0420 f          1 GAW      -0.109167
     31 F32          4.3350    -3.1680    34.4640 f          1 GAW      -0.109167
     32 F33          6.0780    -1.9590    33.9980 f          1 GAW      -0.109167
     33 F34          4.6810    -1.3150    35.5250 f          1 GAW      -0.109167
     34 N11          5.2210    -3.2800    25.3580 nb         1 GAW      -0.741000
     35 N14          4.3290    -1.7020    28.5650 n          1 GAW      -0.227400
     36 N35          6.5030    -5.1130    24.7590 nh         1 GAW      -0.787300
     37 N38          5.4200    -7.5190    24.0720 n3         1 GAW      -0.720600
     38 O17          6.3070    -0.6610    28.8090 o          1 GAW      -0.585100
     39 H1           2.5340    -1.3770    29.6300 h1         1 GAW       0.042033
     40 H2           2.3410    -1.4730    27.8700 h1         1 GAW       0.042033
     41 H3           2.6670    -2.9290    28.8200 h1         1 GAW       0.042033
     42 H4           3.1800     2.1620    29.3980 hc         1 GAW       0.048700
     43 H5           4.0560     1.5110    28.0160 hc         1 GAW       0.048700
     44 H6           2.6270     0.6760    28.6230 hc         1 GAW       0.048700
     45 H7           5.5320    -1.0710    31.8270 ha         1 GAW       0.143000
     46 H8           2.2280    -1.0930    34.5520 ha         1 GAW       0.148000
     47 H9           1.8780     0.9090    30.7910 ha         1 GAW       0.143000
     48 H10          8.2250    -2.5890    28.5940 hc         1 GAW       0.050033
     49 H11          9.3200    -3.1940    29.8490 hc         1 GAW       0.050033
     50 H12          8.7960    -4.2510    28.5380 hc         1 GAW       0.050033
     51 H13          8.4750    -4.1040    31.8200 ha         1 GAW       0.114000
     52 H14          6.5920    -4.7990    33.2510 ha         1 GAW       0.117000
     53 H15          4.3030    -4.9480    32.2940 ha         1 GAW       0.117000
     54 H16          3.9450    -4.4220    29.9140 ha         1 GAW       0.110000
     55 H17          6.8510    -5.3830    27.4310 ha         1 GAW       0.126000
     56 H18          4.1070    -1.6510    25.9460 h4         1 GAW       0.018100
     57 H19          6.3190     0.9460    30.9010 hc         1 GAW       0.048700
     58 H20          6.0560     1.8680    29.4180 hc         1 GAW       0.048700
     59 H21          5.1190     2.2480    30.8750 hc         1 GAW       0.048700
     60 H22          7.9020    -6.1320    25.9580 h1         1 GAW       0.060950
     61 H23          8.0980    -6.3090    24.2340 h1         1 GAW       0.060950
     62 H24          6.1010    -7.7180    26.0420 h1         1 GAW       0.056450
     63 H25          7.1880    -8.4010    24.8330 h1         1 GAW       0.056450
     64 H26          4.9470    -6.6650    22.2210 h1         1 GAW       0.056450
     65 H27          6.6550    -6.9660    22.4970 h1         1 GAW       0.056450
     66 H28          6.5120    -4.5940    22.7010 h1         1 GAW       0.060950
     67 H29          4.9340    -4.6490    23.4790 h1         1 GAW       0.060950
     68 H30          3.8870    -8.0360    25.3980 h1         1 GAW       0.034700
     69 H31          4.0390    -6.2860    25.1850 h1         1 GAW       0.034700
     70 H32          3.3520    -7.2840    23.8910 h1         1 GAW       0.034700
     71 C01          8.4750    -3.4530    29.2110 c3         1 GAW      -0.052800
     72 C16          5.1030    -0.6920    29.0540 c          1 GAW       0.607100
     73 C41          4.1150    -7.2550    24.6710 c3         1 GAW       0.153100
@<TRIPOS>BOND
     1     1    16 ar  
     2     1    34 ar  
     3     1    36 1   
     4     2    15 ar  
     5     2    17 ar  
     6     2    35 1   
     7     3    35 1   
     8     3    39 1   
     9     3    40 1   
    10     3    41 1   
    11     4    18 1   
    12     4    42 1   
    13     4    43 1   
    14     4    44 1   
    15     5     6 ar  
    16     5     8 ar  
    17     5    18 1   
    18     6    20 ar  
    19     6    45 1   
    20     7    20 ar  
    21     7    21 ar  
    22     7    46 1   
    23     8    21 ar  
    24     8    47 1   
    25     9    10 ar  
    26     9    14 ar  
    27     9    71 1   
    28    10    11 ar  
    29    10    51 1   
    30    11    12 ar  
    31    11    52 1   
    32    12    13 ar  
    33    12    53 1   
    34    13    14 ar  
    35    13    54 1   
    36    14    15 1   
    37    15    16 ar  
    38    16    55 1   
    39    17    34 ar  
    40    17    56 1   
    41    18    19 1   
    42    18    72 1   
    43    19    57 1   
    44    19    58 1   
    45    19    59 1   
    46    20    23 1   
    47    21    22 1   
    48    22    28 1   
    49    22    29 1   
    50    22    30 1   
    51    23    31 1   
    52    23    32 1   
    53    23    33 1   
    54    24    25 1   
    55    24    36 1   
    56    24    60 1   
    57    24    61 1   
    58    25    37 1   
    59    25    62 1   
    60    25    63 1   
    61    26    27 1   
    62    26    37 1   
    63    26    64 1   
    64    26    65 1   
    65    27    36 1   
    66    27    66 1   
    67    27    67 1   
    68    35    72 1   
    69    37    73 1   
    70    38    72 2   
    71    48    71 1   
    72    49    71 1   
    73    50    71 1   
    74    68    73 1   
    75    69    73 1   
    76    70    73 1   
@<TRIPOS>SUBSTRUCTURE
     1 GAW         1 TEMP              0 ****  ****    0 ROOT
