@<TRIPOS>MOLECULE
GAW
   73    76     1     0     0
SMALL
No Charge or Current Charge


@<TRIPOS>ATOM
      1 C10          6.1330    -4.3400    25.8490 ca         1 GAW       0.626900
      2 C13          4.9270    -2.6390    27.6430 ca         1 GAW      -0.162000
      3 C15          3.4060    -2.1430    29.6150 c3         1 GAW       0.098300
      4 C20          3.0190     1.1560    28.7040 c3         1 GAW      -0.083100
      5 C21          4.0260     0.4220    31.0050 ca         1 GAW      -0.079300
      6 C22          5.0800    -0.1090    31.7790 ca         1 GAW      -0.031000
      7 C24          3.6020    -0.3520    33.6930 ca         1 GAW      -0.016000
      8 C26          2.7590     0.5840    31.6110 ca         1 GAW      -0.031000
      9 C02          5.9940    -4.1320    30.5200 ca         1 GAW      -0.044300
     10 C03          5.8030    -4.6380    31.8220 ca         1 GAW      -0.118000
     11 C04          4.7410    -5.5130    32.1010 ca         1 GAW      -0.099000
     12 C05          3.8650    -5.9010    31.0760 ca         1 GAW      -0.125000
     13 C06          4.0430    -5.3990    29.7780 ca         1 GAW      -0.095000
     14 C07          5.0890    -4.4920    29.4830 cp         1 GAW      -0.051000
     15 C08          5.2410    -3.9620    28.0930 cp         1 GAW       0.066000
     16 C09          5.8270    -4.8120    27.1340 ca         1 GAW      -0.223000
     17 C12          5.3530    -2.2380    26.3580 ca         1 GAW       0.385900
     18 C18          4.2960     0.7870    29.5240 c3         1 GAW      -0.071700
     19 C19          5.1980     2.0610    29.5380 c3         1 GAW      -0.083100
     20 C23          4.8760    -0.5120    33.1150 ca         1 GAW      -0.196300
     21 C25          2.5380     0.1940    32.9480 ca         1 GAW      -0.196300
     22 C27          1.1500     0.3820    33.5710 c3         1 GAW       0.347300
     23 C31          6.0110    -1.1120    33.9500 c3         1 GAW       0.347300
     24 C36          7.5480    -6.3480    25.1870 c6         1 GAW       0.190300
     25 C37          6.8840    -7.7160    24.7850 c6         1 GAW       0.140300
     26 C39          6.2420    -6.5140    22.7360 c6         1 GAW       0.140300
     27 C40          6.1950    -5.1160    23.4480 c6         1 GAW       0.190300
     28 F28          0.9280     1.6750    33.8930 f          1 GAW      -0.109167
     29 F29          0.9780    -0.3410    34.7020 f          1 GAW      -0.109167
     30 F30          0.1640     0.0100    32.7230 f          1 GAW      -0.109167
     31 F32          5.6250    -2.2510    34.5690 f          1 GAW      -0.109167
     32 F33          7.1040    -1.4220    33.2170 f          1 GAW      -0.109167
     33 F34          6.4160    -0.2560    34.9150 f          1 GAW      -0.109167
     34 N11          5.9120    -3.0760    25.4630 nb         1 GAW      -0.741000
     35 N14          4.3990    -1.6770    28.6110 n          1 GAW      -0.227400
     36 N35          6.7150    -5.1470    24.8580 nh         1 GAW      -0.787300
     37 N38          5.8890    -7.6400    23.6590 n3         1 GAW      -0.720600
     38 O17          6.1550    -0.2260    28.3270 o          1 GAW      -0.585100
     39 H1           3.8980    -2.3460    30.5740 h1         1 GAW       0.042033
     40 H2           2.6150    -1.4060    29.7710 h1         1 GAW       0.042033
     41 H3           2.9110    -3.0520    29.2550 h1         1 GAW       0.042033
     42 H4           2.5400     2.0600    29.1000 hc         1 GAW       0.048700
     43 H5           3.2850     1.3630    27.6590 hc         1 GAW       0.048700
     44 H6           2.2720     0.3570    28.6920 hc         1 GAW       0.048700
     45 H7           6.0660    -0.2140    31.3320 ha         1 GAW       0.143000
     46 H8           3.4490    -0.6500    34.7290 ha         1 GAW       0.148000
     47 H9           1.9280     1.0080    31.0530 ha         1 GAW       0.143000
     48 H10          7.6660    -3.4490    29.3020 hc         1 GAW       0.050033
     49 H11          6.8710    -2.1670    30.2270 hc         1 GAW       0.050033
     50 H12          7.9470    -3.3100    31.0380 hc         1 GAW       0.050033
     51 H13          6.4850    -4.3570    32.6210 ha         1 GAW       0.114000
     52 H14          4.6040    -5.8980    33.1090 ha         1 GAW       0.117000
     53 H15          3.0470    -6.5870    31.2880 ha         1 GAW       0.117000
     54 H16          3.3560    -5.7000    28.9890 ha         1 GAW       0.110000
     55 H17          6.0520    -5.8350    27.4080 ha         1 GAW       0.126000
     56 H18          5.1920    -1.2160    26.0150 h4         1 GAW       0.018100
     57 H19          6.1510     1.8750    30.0480 hc         1 GAW       0.048700
     58 H20          5.4230     2.4000    28.5190 hc         1 GAW       0.048700
     59 H21          4.6970     2.8850    30.0630 hc         1 GAW       0.048700
     60 H22          7.8340    -6.3740    26.2480 h1         1 GAW       0.060950
     61 H23          8.4970    -6.2640    24.6370 h1         1 GAW       0.060950
     62 H24          6.4090    -8.1480    25.6790 h1         1 GAW       0.056450
     63 H25          7.6950    -8.4080    24.5150 h1         1 GAW       0.056450
     64 H26          5.5710    -6.4950    21.8650 h1         1 GAW       0.056450
     65 H27          7.2580    -6.6660    22.3410 h1         1 GAW       0.056450
     66 H28          6.7550    -4.3850    22.8460 h1         1 GAW       0.060950
     67 H29          5.1460    -4.7840    23.4530 h1         1 GAW       0.060950
     68 H30          4.2360    -8.4780    24.7140 h1         1 GAW       0.034700
     69 H31          4.3090    -6.7040    24.7670 h1         1 GAW       0.034700
     70 H32          3.7910    -7.5330    23.2790 h1         1 GAW       0.034700
     71 C01          7.1820    -3.2150    30.2580 c3         1 GAW      -0.052800
     72 C16          5.0350    -0.4050    28.7970 c          1 GAW       0.607100
     73 C41          4.4830    -7.5820    24.1300 c3         1 GAW       0.153100
@<TRIPOS>BOND
     1     1    16 ar  
     2     1    34 ar  
     3     1    36 1   
     4     2    15 ar  
     5     2    17 ar  
     6     2    35 1   
     7     3    35 1   
     8     3    39 1   
     9     3    40 1   
    10     3    41 1   
    11     4    18 1   
    12     4    42 1   
    13     4    43 1   
    14     4    44 1   
    15     5     6 ar  
    16     5     8 ar  
    17     5    18 1   
    18     6    20 ar  
    19     6    45 1   
    20     7    20 ar  
    21     7    21 ar  
    22     7    46 1   
    23     8    21 ar  
    24     8    47 1   
    25     9    10 ar  
    26     9    14 ar  
    27     9    71 1   
    28    10    11 ar  
    29    10    51 1   
    30    11    12 ar  
    31    11    52 1   
    32    12    13 ar  
    33    12    53 1   
    34    13    14 ar  
    35    13    54 1   
    36    14    15 1   
    37    15    16 ar  
    38    16    55 1   
    39    17    34 ar  
    40    17    56 1   
    41    18    19 1   
    42    18    72 1   
    43    19    57 1   
    44    19    58 1   
    45    19    59 1   
    46    20    23 1   
    47    21    22 1   
    48    22    28 1   
    49    22    29 1   
    50    22    30 1   
    51    23    31 1   
    52    23    32 1   
    53    23    33 1   
    54    24    25 1   
    55    24    36 1   
    56    24    60 1   
    57    24    61 1   
    58    25    37 1   
    59    25    62 1   
    60    25    63 1   
    61    26    27 1   
    62    26    37 1   
    63    26    64 1   
    64    26    65 1   
    65    27    36 1   
    66    27    66 1   
    67    27    67 1   
    68    35    72 1   
    69    37    73 1   
    70    38    72 2   
    71    48    71 1   
    72    49    71 1   
    73    50    71 1   
    74    68    73 1   
    75    69    73 1   
    76    70    73 1   
@<TRIPOS>SUBSTRUCTURE
     1 GAW         1 TEMP              0 ****  ****    0 ROOT
