@<TRIPOS>MOLECULE
GAX
   50    53     1     0     0
SMALL
bcc


@<TRIPOS>ATOM
      1 N6          -3.5520     2.9470     1.1530 nb         1 GAX      -0.748000
      2 C2           1.0410    -1.7290     0.4290 ca         1 GAX       0.057600
      3 N2           4.0370    -0.2120    -0.9310 ns         1 GAX      -0.553400
      4 N3           5.8970     0.8930    -1.7760 nc         1 GAX      -0.711000
      5 C4          -1.2120    -2.5590     0.4160 ca         1 GAX      -0.272500
      6 N4          -3.5030    -1.6150    -0.7950 n3         1 GAX      -0.746500
      7 C5          -1.2640    -2.5420     1.8020 ca         1 GAX      -0.054000
      8 C6          -0.1400    -2.1130     2.4910 ca         1 GAX      -0.124000
      9 O1          -2.2290    -3.4990    -1.8010 o          1 GAX      -0.604800
     10 O2          -3.4940    -3.8250     0.3490 o          1 GAX      -0.604800
     11 O3           3.0750     0.2080     1.0700 o          1 GAX      -0.599100
     12 C7           3.0780    -0.4170     0.0270 c          1 GAX       0.798100
     13 C8           5.0380     0.7200    -0.8240 cd         1 GAX       0.544300
     14 C10          6.7940     1.8690    -1.4400 cc         1 GAX       0.369200
     15 C9           6.6180     2.4390    -0.2260 cd         1 GAX      -0.248400
     16 S2           5.2560     1.7330     0.5640 ss         1 GAX      -0.087300
     17 C3          -0.0780    -2.1650    -0.2750 ca         1 GAX      -0.093000
     18 C1           1.0070    -1.7130     1.8240 ca         1 GAX      -0.084000
     19 S1          -2.6640    -2.9960    -0.5090 sy         1 GAX       1.311200
     20 C14         -4.2330    -0.9550     0.2830 c6         1 GAX       0.197300
     21 C13         -3.4860     0.2450     0.8350 c6         1 GAX       0.184300
     22 N5          -3.1130     1.1570    -0.2330 nh         1 GAX      -0.770300
     23 C12         -2.3450     0.5280    -1.2870 c6         1 GAX       0.184300
     24 C11         -3.0790    -0.6860    -1.8360 c6         1 GAX       0.197300
     25 C15         -2.9580     2.4950     0.0490 ca         1 GAX       0.679200
     26 C19         -2.2330     3.3680    -0.7880 ca         1 GAX      -0.308300
     27 C18         -2.1780     4.7070    -0.4610 ca         1 GAX      -0.054000
     28 C17         -2.8180     5.1750     0.6810 ca         1 GAX      -0.296300
     29 C16         -3.4840     4.2390     1.4500 ca         1 GAX       0.451200
     30 H2           4.0380    -0.7460    -1.7890 hn         1 GAX       0.339500
     31 H10          7.5750     2.1310    -2.1400 h4         1 GAX       0.041100
     32 H9           7.1950     3.2200     0.2410 h4         1 GAX       0.179000
     33 H1           2.1850    -1.7160    -1.2640 hn         1 GAX       0.324500
     34 H3          -0.0540    -2.1880    -1.3580 ha         1 GAX       0.147000
     35 H5          -2.1470    -2.8590     2.3380 ha         1 GAX       0.158000
     36 H6          -0.1500    -2.1030     3.5730 ha         1 GAX       0.143000
     37 H1A          1.8690    -1.4090     2.3960 ha         1 GAX       0.165000
     38 H141        -5.1910    -0.6320    -0.1320 h1         1 GAX       0.077200
     39 H142        -4.4520    -1.6590     1.0830 h1         1 GAX       0.077200
     40 H131        -4.1300     0.7600     1.5410 h1         1 GAX       0.057200
     41 H132        -2.5930    -0.0850     1.3840 h1         1 GAX       0.057200
     42 H121        -2.2160     1.2080    -2.1260 h1         1 GAX       0.057200
     43 H122        -1.3440     0.2490    -0.9330 h1         1 GAX       0.057200
     44 H111        -2.4580    -1.1920    -2.5710 h1         1 GAX       0.077200
     45 H112        -3.9840    -0.3540    -2.3520 h1         1 GAX       0.077200
     46 H19         -1.7170     3.0220    -1.6700 ha         1 GAX       0.137000
     47 H18         -1.6250     5.3840    -1.0990 ha         1 GAX       0.133000
     48 H17         -2.7930     6.2160     0.9670 ha         1 GAX       0.144000
     49 H16         -3.9910     4.5400     2.3600 h4         1 GAX       0.016100
     50 N1           2.1670    -1.3710    -0.3160 ns         1 GAX      -0.481100
@<TRIPOS>BOND
     1     1    25 ar  
     2     1    29 ar  
     3     2    17 ar  
     4     2    18 ar  
     5     2    50 1   
     6     3    12 1   
     7     3    13 1   
     8     3    30 1   
     9     4    13 2   
    10     4    14 1   
    11     5     7 ar  
    12     5    17 ar  
    13     5    19 1   
    14     6    19 1   
    15     6    20 1   
    16     6    24 1   
    17     7     8 ar  
    18     7    35 1   
    19     8    18 ar  
    20     8    36 1   
    21     9    19 2   
    22    10    19 2   
    23    11    12 2   
    24    12    50 1   
    25    13    16 1   
    26    14    15 2   
    27    14    31 1   
    28    15    16 1   
    29    15    32 1   
    30    17    34 1   
    31    18    37 1   
    32    20    21 1   
    33    20    38 1   
    34    20    39 1   
    35    21    22 1   
    36    21    40 1   
    37    21    41 1   
    38    22    23 1   
    39    22    25 1   
    40    23    24 1   
    41    23    42 1   
    42    23    43 1   
    43    24    44 1   
    44    24    45 1   
    45    25    26 ar  
    46    26    27 ar  
    47    26    46 1   
    48    27    28 ar  
    49    27    47 1   
    50    28    29 ar  
    51    28    48 1   
    52    29    49 1   
    53    33    50 1   
@<TRIPOS>SUBSTRUCTURE
     1 GAX         1 TEMP              0 ****  ****    0 ROOT
