@<TRIPOS>MOLECULE
GAX
   50    53     1     0     0
SMALL
No Charge or Current Charge


@<TRIPOS>ATOM
      1 N6          -2.3410     2.9120     0.7270 nb         1 GAX      -0.748000
      2 C2           0.6740    -1.4520     0.6260 ca         1 GAX      -0.035000
      3 N2           3.4580     0.7460    -0.3640 ns         1 GAX      -0.486400
      4 N3           5.0960     2.1000    -1.2750 nc         1 GAX      -0.711000
      5 C4          -1.4580    -2.6320     0.3360 ca         1 GAX      -0.272500
      6 N4          -4.0230    -1.8320    -0.4270 n3         1 GAX      -0.746500
      7 C5          -1.3830    -3.0940     1.6660 ca         1 GAX      -0.036000
      8 C6          -0.2910    -2.7340     2.4700 ca         1 GAX      -0.106000
      9 O1          -2.4470    -2.9460    -2.1010 o          1 GAX      -0.534000
     10 O2          -3.4930    -4.3090    -0.2080 o          1 GAX      -0.534000
     11 O3           3.0280     0.0730     1.7730 o          1 GAX      -0.599100
     12 C7           2.7440     0.0650     0.5860 c          1 GAX       0.664100
     13 C8           4.5620     1.5340    -0.2070 cd         1 GAX       0.544300
     14 C10          6.1900     2.8510    -0.9220 cc         1 GAX       0.303900
     15 C9           6.5010     2.8660     0.4130 cd         1 GAX      -0.310000
     16 S2           5.3720     1.8860     1.3280 ss         1 GAX       0.057600
     17 C3          -0.4150    -1.8310    -0.1820 ca         1 GAX      -0.075000
     18 C1           0.7310    -1.9150     1.9600 ca         1 GAX      -0.066000
     19 S1          -2.8730    -3.0750    -0.7020 sy         1 GAX       1.169600
     20 C14         -3.9760    -1.0710     0.8540 c6         1 GAX       0.197300
     21 C13         -2.9960     0.1530     0.8580 c6         1 GAX       0.184300
     22 N5          -3.0010     0.9910    -0.3980 nh         1 GAX      -0.770300
     23 C12         -3.2330     0.2250    -1.6710 c6         1 GAX       0.184300
     24 C11         -4.3090    -0.8970    -1.5470 c6         1 GAX       0.197300
     25 C15         -2.3020     2.2170    -0.4250 ca         1 GAX       0.613900
     26 C19         -1.6110     2.6810    -1.5630 ca         1 GAX      -0.225000
     27 C18         -0.9350     3.9080    -1.5080 ca         1 GAX      -0.036000
     28 C17         -0.9810     4.6260    -0.3070 ca         1 GAX      -0.213000
     29 C16         -1.6910     4.0940     0.7800 ca         1 GAX       0.385900
     30 H2           3.1160     0.6510    -1.3070 hn         1 GAX       0.339500
     31 H10          6.7270     3.3720    -1.7040 h4         1 GAX       0.041100
     32 H9           7.3140     3.3870     0.9030 h4         1 GAX       0.161000
     33 H1           1.5600    -0.5000    -0.9570 hn         1 GAX       0.158000
     34 H3          -0.4610    -1.4800    -1.2110 ha         1 GAX       0.129000
     35 H5          -2.1680    -3.7250     2.0800 ha         1 GAX       0.140000
     36 H6          -0.2360    -3.0890     3.4970 ha         1 GAX       0.125000
     37 H1A          1.5610    -1.6620     2.6120 ha         1 GAX       0.147000
     38 H141        -4.9790    -0.6670     1.0520 h1         1 GAX       0.077200
     39 H142        -3.7530    -1.7270     1.7070 h1         1 GAX       0.077200
     40 H131        -3.2750     0.7660     1.7260 h1         1 GAX       0.057200
     41 H132        -1.9760    -0.1960     1.0580 h1         1 GAX       0.057200
     42 H121        -3.5690     0.9120    -2.4620 h1         1 GAX       0.057200
     43 H122        -2.2900    -0.2220    -2.0130 h1         1 GAX       0.057200
     44 H111        -4.4040    -1.4270    -2.5060 h1         1 GAX       0.077200
     45 H112        -5.2790    -0.4080    -1.3780 h1         1 GAX       0.077200
     46 H19         -1.5820     2.1010    -2.4790 ha         1 GAX       0.119000
     47 H18         -0.3910     4.2900    -2.3710 ha         1 GAX       0.115000
     48 H17         -0.4750     5.5830    -0.2100 ha         1 GAX       0.126000
     49 H16         -1.7420     4.6330     1.7250 h4         1 GAX       0.016100
     50 N1           1.6670    -0.6170     0.0410 ns         1 GAX      -0.155000
@<TRIPOS>BOND
     1     1    25 ar  
     2     1    29 ar  
     3     2    17 ar  
     4     2    18 ar  
     5     2    50 1   
     6     3    12 1   
     7     3    13 1   
     8     3    30 1   
     9     4    13 2   
    10     4    14 1   
    11     5     7 ar  
    12     5    17 ar  
    13     5    19 1   
    14     6    19 1   
    15     6    20 1   
    16     6    24 1   
    17     7     8 ar  
    18     7    35 1   
    19     8    18 ar  
    20     8    36 1   
    21     9    19 2   
    22    10    19 2   
    23    11    12 2   
    24    12    50 1   
    25    13    16 1   
    26    14    15 2   
    27    14    31 1   
    28    15    16 1   
    29    15    32 1   
    30    17    34 1   
    31    18    37 1   
    32    20    21 1   
    33    20    38 1   
    34    20    39 1   
    35    21    22 1   
    36    21    40 1   
    37    21    41 1   
    38    22    23 1   
    39    22    25 1   
    40    23    24 1   
    41    23    42 1   
    42    23    43 1   
    43    24    44 1   
    44    24    45 1   
    45    25    26 ar  
    46    26    27 ar  
    47    26    46 1   
    48    27    28 ar  
    49    27    47 1   
    50    28    29 ar  
    51    28    48 1   
    52    29    49 1   
    53    33    50 1   
@<TRIPOS>SUBSTRUCTURE
     1 GAX         1 TEMP              0 ****  ****    0 ROOT
