@<TRIPOS>MOLECULE
GAY
   49    52     1     0     0
SMALL
No Charge or Current Charge


@<TRIPOS>ATOM
      1 CAM         -0.7090    22.3060    -6.9270 c3         1 GAY      -0.187100
      2 CAL         -1.5040    23.0920    -5.8850 c          1 GAY       0.616300
      3 OAN         -2.5500    22.6270    -5.4530 o          1 GAY      -0.560100
      4 CAG         -0.9610    24.4040    -5.4380 cc         1 GAY      -0.279300
      5 CAH          0.2160    24.9760    -5.8930 cd         1 GAY      -0.097000
      6 NAE         -1.4210    25.3510    -4.5260 na         1 GAY       0.178100
      7 CAD         -2.6110    25.2110    -3.7930 cc         1 GAY      -0.071000
      8 CAC         -2.9000    26.2730    -2.9310 cd         1 GAY      -0.170000
      9 CAB         -2.0570    27.4340    -2.7880 cd         1 GAY       0.172100
     10 OAJ         -2.4560    28.4070    -1.9050 os         1 GAY      -0.330100
     11 CAK         -1.6800    29.6020    -1.6940 c3         1 GAY       0.142900
     12 CAA         -0.8970    27.5370    -3.5240 cc         1 GAY      -0.211000
     13 CAF         -0.6040    26.4550    -4.4000 cc         1 GAY       0.021000
     14 CAI          0.4510    26.2440    -5.2600 cd         1 GAY      -0.281200
     15 CAO          1.6030    27.1730    -5.4770 c          1 GAY       0.656300
     16 OAP          1.7470    28.2420    -4.8950 o          1 GAY      -0.594100
     17 NAQ          2.5220    26.6800    -6.3920 ns         1 GAY      -0.155000
     18 CAR          3.6910    27.2730    -6.9420 ca         1 GAY      -0.079000
     19 CAS          3.7290    28.6170    -7.3910 ca         1 GAY       0.190000
     20 FAX          2.5940    29.3500    -7.3560 f          1 GAY      -0.161000
     21 CAW          4.8310    26.4660    -7.0760 ca         1 GAY      -0.119000
     22 CAV          6.0100    26.9990    -7.6120 ca         1 GAY      -0.113000
     23 CAU          6.0570    28.3370    -8.0310 ca         1 GAY      -0.097000
     24 CAT          4.9190    29.1740    -7.9370 ca         1 GAY      -0.011000
     25 CAY          4.9850    30.5780    -8.4050 cc         1 GAY      -0.161000
     26 CBC          6.0960    31.1060    -9.0050 cd         1 GAY      -0.156000
     27 CAZ          4.0330    31.6190    -8.3810 cc         1 GAY       0.271900
     28 NBA          4.4580    32.7490    -8.9100 nd         1 GAY      -0.528800
     29 NBB          5.7500    32.4290    -9.3000 na         1 GAY       0.135800
     30 CBD          6.6060    33.4280    -9.9540 c3         1 GAY       0.072900
     31 H1          -1.1860    21.3560    -7.1930 hc         1 GAY       0.062033
     32 H2          -0.5550    22.9370    -7.8100 hc         1 GAY       0.062033
     33 H3           0.3110    22.1530    -6.5580 hc         1 GAY       0.062033
     34 H4           0.8750    24.5240    -6.6340 ha         1 GAY       0.200000
     35 H5          -3.2200    24.3300    -3.9240 h4         1 GAY       0.181000
     36 H6          -3.8060    26.2240    -2.3370 ha         1 GAY       0.149000
     37 H7          -2.1700    30.2470    -0.9540 h1         1 GAY       0.050700
     38 H8          -0.6780    29.3580    -1.3190 h1         1 GAY       0.050700
     39 H9          -1.5800    30.1730    -2.6260 h1         1 GAY       0.050700
     40 H10         -0.2290    28.3840    -3.4560 ha         1 GAY       0.167000
     41 H11          2.3250    25.7480    -6.7310 hn         1 GAY       0.152000
     42 H12          4.8090    25.4270    -6.7510 ha         1 GAY       0.116000
     43 H13          6.8950    26.3720    -7.7010 ha         1 GAY       0.117000
     44 H14          6.9940    28.7070    -8.4340 ha         1 GAY       0.114000
     45 H15          7.0650    30.6920    -9.2500 h4         1 GAY       0.153000
     46 H16          3.0270    31.5990    -7.9870 h4         1 GAY       0.047100
     47 H17          6.7220    34.2980    -9.2970 h1         1 GAY       0.056367
     48 H18          7.5930    32.9950   -10.1580 h1         1 GAY       0.056367
     49 H19          6.1470    33.7420   -10.8990 h1         1 GAY       0.056367
@<TRIPOS>BOND
     1     1     2 1   
     2     1    31 1   
     3     1    32 1   
     4     1    33 1   
     5     2     3 2   
     6     2     4 1   
     7     4     5 2   
     8     4     6 1   
     9     5    14 1   
    10     5    34 1   
    11     6     7 1   
    12     6    13 1   
    13     7     8 2   
    14     7    35 1   
    15     8     9 1   
    16     8    36 1   
    17     9    10 1   
    18     9    12 2   
    19    10    11 1   
    20    11    37 1   
    21    11    38 1   
    22    11    39 1   
    23    12    13 1   
    24    12    40 1   
    25    13    14 2   
    26    14    15 1   
    27    15    16 2   
    28    15    17 1   
    29    17    18 1   
    30    17    41 1   
    31    18    19 ar  
    32    18    21 ar  
    33    19    20 1   
    34    19    24 ar  
    35    21    22 ar  
    36    21    42 1   
    37    22    23 ar  
    38    22    43 1   
    39    23    24 ar  
    40    23    44 1   
    41    24    25 1   
    42    25    26 2   
    43    25    27 1   
    44    26    29 1   
    45    26    45 1   
    46    27    28 2   
    47    27    46 1   
    48    28    29 1   
    49    29    30 1   
    50    30    47 1   
    51    30    48 1   
    52    30    49 1   
@<TRIPOS>SUBSTRUCTURE
     1 GAY         1 TEMP              0 ****  ****    0 ROOT
