@<TRIPOS>MOLECULE
GAY
   49    52     1     0     0
SMALL
abcg2


@<TRIPOS>ATOM
      1 CAM         -1.3470    22.5730    -7.1340 c3         1 GAY      -0.187100
      2 CAL         -1.8810    23.3920    -5.9840 c          1 GAY       0.616300
      3 OAN         -2.9110    23.0760    -5.4070 o          1 GAY      -0.560100
      4 CAG         -1.1040    24.5560    -5.6200 cc         1 GAY      -0.279300
      5 CAH          0.0610    25.0220    -6.1950 cd         1 GAY      -0.097000
      6 NAE         -1.4270    25.4470    -4.5920 na         1 GAY       0.178100
      7 CAD         -2.4710    25.4180    -3.7150 cc         1 GAY      -0.071000
      8 CAC         -2.5980    26.3830    -2.7740 cd         1 GAY      -0.170000
      9 CAB         -1.6470    27.4330    -2.6910 cd         1 GAY       0.172100
     10 OAJ         -1.8630    28.3280    -1.7280 os         1 GAY      -0.330100
     11 CAK         -0.9570    29.4100    -1.5960 c3         1 GAY       0.142900
     12 CAA         -0.5970    27.4620    -3.5760 cc         1 GAY      -0.211000
     13 CAF         -0.4850    26.4500    -4.5400 cc         1 GAY       0.021000
     14 CAI          0.4700    26.1900    -5.5450 cd         1 GAY      -0.281200
     15 CAO          1.6350    27.0290    -5.8140 c          1 GAY       0.656300
     16 OAP          1.7700    28.1450    -5.3350 o          1 GAY      -0.594100
     17 NAQ          2.5790    26.4870    -6.6410 ns         1 GAY      -0.155000
     18 CAR          3.7820    27.1510    -6.9310 ca         1 GAY      -0.079000
     19 CAS          3.7790    28.3480    -7.6370 ca         1 GAY       0.190000
     20 FAX          2.6000    28.8380    -8.0400 f          1 GAY      -0.161000
     21 CAW          5.0030    26.6160    -6.5390 ca         1 GAY      -0.119000
     22 CAV          6.1820    27.2760    -6.8500 ca         1 GAY      -0.113000
     23 CAU          6.1490    28.4780    -7.5350 ca         1 GAY      -0.097000
     24 CAT          4.9390    29.0480    -7.9420 ca         1 GAY      -0.011000
     25 CAY          4.9150    30.3250    -8.6540 cc         1 GAY      -0.161000
     26 CBC          5.8370    31.3480    -8.5170 cd         1 GAY      -0.156000
     27 CAZ          4.0280    30.8120    -9.6350 cc         1 GAY       0.271900
     28 NBA          4.3830    32.0110   -10.0550 nd         1 GAY      -0.528800
     29 NBB          5.4760    32.3200    -9.3640 na         1 GAY       0.135800
     30 CBD          6.1330    33.5880    -9.5730 c3         1 GAY       0.072900
     31 H1          -2.0000    21.7230    -7.3180 hc         1 GAY       0.062033
     32 H2          -1.2860    23.1700    -8.0450 hc         1 GAY       0.062033
     33 H3          -0.3430    22.2030    -6.9220 hc         1 GAY       0.062033
     34 H4           0.5510    24.5480    -7.0330 ha         1 GAY       0.200000
     35 H5          -3.1670    24.6040    -3.8140 h4         1 GAY       0.181000
     36 H6          -3.4320    26.3430    -2.0880 ha         1 GAY       0.149000
     37 H7          -1.3130    30.0080    -0.7610 h1         1 GAY       0.050700
     38 H8           0.0560    29.0630    -1.3790 h1         1 GAY       0.050700
     39 H9          -0.9370    30.0300    -2.4950 h1         1 GAY       0.050700
     40 H10          0.1510    28.2380    -3.5660 ha         1 GAY       0.167000
     41 H11          2.5700    25.4910    -6.8000 hn         1 GAY       0.152000
     42 H12          5.0190    25.6820    -5.9920 ha         1 GAY       0.116000
     43 H13          7.1310    26.8520    -6.5510 ha         1 GAY       0.117000
     44 H14          7.0760    28.9810    -7.7770 ha         1 GAY       0.114000
     45 H15          6.6960    31.4460    -7.8730 h4         1 GAY       0.153000
     46 H16          3.1630    30.3290   -10.0610 h4         1 GAY       0.047100
     47 H17          5.4470    34.4080    -9.3690 h1         1 GAY       0.056367
     48 H18          6.9810    33.6600    -8.8980 h1         1 GAY       0.056367
     49 H19          6.4890    33.6660   -10.5990 h1         1 GAY       0.056367
@<TRIPOS>BOND
     1     1     2 1   
     2     1    31 1   
     3     1    32 1   
     4     1    33 1   
     5     2     3 2   
     6     2     4 1   
     7     4     5 2   
     8     4     6 1   
     9     5    14 1   
    10     5    34 1   
    11     6     7 1   
    12     6    13 1   
    13     7     8 2   
    14     7    35 1   
    15     8     9 1   
    16     8    36 1   
    17     9    10 1   
    18     9    12 2   
    19    10    11 1   
    20    11    37 1   
    21    11    38 1   
    22    11    39 1   
    23    12    13 1   
    24    12    40 1   
    25    13    14 2   
    26    14    15 1   
    27    15    16 2   
    28    15    17 1   
    29    17    18 1   
    30    17    41 1   
    31    18    19 ar  
    32    18    21 ar  
    33    19    20 1   
    34    19    24 ar  
    35    21    22 ar  
    36    21    42 1   
    37    22    23 ar  
    38    22    43 1   
    39    23    24 ar  
    40    23    44 1   
    41    24    25 1   
    42    25    26 2   
    43    25    27 1   
    44    26    29 1   
    45    26    45 1   
    46    27    28 2   
    47    27    46 1   
    48    28    29 1   
    49    29    30 1   
    50    30    47 1   
    51    30    48 1   
    52    30    49 1   
@<TRIPOS>SUBSTRUCTURE
     1 GAY         1 TEMP              0 ****  ****    0 ROOT
