@<TRIPOS>MOLECULE
GAZ
   58    58     1     0     0
SMALL
No Charge or Current Charge


@<TRIPOS>ATOM
      1 N1          -9.9330   -17.7610    -9.2290 n8         1 GAZ      -0.998200
      2 CA1         -9.7770   -19.2580    -9.3210 c3         1 GAZ       0.018500
      3 C1          -8.6160   -19.7700   -10.2720 c          1 GAZ       0.678000
      4 O11         -8.6170   -19.4060   -11.4410 o          1 GAZ      -0.741500
      5 O12         -7.7030   -20.4160    -9.7770 o          1 GAZ      -0.741500
      6 CB1        -11.1430   -19.9060    -9.6780 c3         1 GAZ      -0.039400
      7 CG1        -11.1430   -21.4540    -9.6150 c3         1 GAZ      -0.148400
      8 CD1        -12.5400   -22.0220    -9.8640 c          1 GAZ       0.600100
      9 OE1        -13.4330   -21.9730    -9.0340 o          1 GAZ      -0.617100
     10 N2         -12.7310   -22.6240   -11.0850 ns         1 GAZ      -0.518900
     11 CA2        -13.9750   -23.3030   -11.5410 c3         1 GAZ       0.021700
     12 C2         -13.6530   -24.2140   -12.7590 c          1 GAZ       0.586100
     13 O2         -12.5960   -24.1520   -13.3770 o          1 GAZ      -0.627100
     14 CB2        -15.0950   -22.2880   -11.9120 c3         1 GAZ       0.047900
     15 SG2        -16.1370   -21.7130   -10.4810 s4         1 GAZ       0.202700
     16 N3         -14.6420   -25.1150   -13.1020 ns         1 GAZ      -0.449900
     17 CA3        -14.5470   -26.0810   -14.2210 c3         1 GAZ      -0.052000
     18 C3         -15.8760   -26.8530   -14.4310 c          1 GAZ       0.703000
     19 O31        -16.5830   -26.5420   -15.3790 o          1 GAZ      -0.727500
     20 O32        -16.1790   -27.7120   -13.6140 o          1 GAZ      -0.727500
     21 C01        -20.5060   -24.3920    -9.0240 ca         1 GAZ      -0.129000
     22 C02        -21.2560   -25.5520    -8.7210 ca         1 GAZ       0.075100
     23 C03        -20.6960   -26.8290    -8.9570 ca         1 GAZ       0.105100
     24 C04        -19.3950   -26.9270    -9.4960 ca         1 GAZ      -0.179000
     25 C05        -18.6570   -25.7680    -9.7920 ca         1 GAZ      -0.059000
     26 C06        -19.1980   -24.4850    -9.5550 ca         1 GAZ      -0.117600
     27 C07        -18.4200   -23.2160    -9.8630 c          1 GAZ       0.628900
     28 O09        -18.9640   -22.1230    -9.8650 o          1 GAZ      -0.700100
     29 C11        -23.1920   -24.2260    -7.9210 c3         1 GAZ       0.149900
     30 C12        -16.9690   -23.2810   -10.1800 ce         1 GAZ      -0.924200
     31 C14        -20.9580   -29.2900    -8.8580 c3         1 GAZ       0.148900
     32 HA11        -9.5180   -19.6010    -8.3090 h1         1 GAZ       0.043700
     33 HB12       -11.4450   -19.5900   -10.6850 hc         1 GAZ       0.042200
     34 HB11       -11.9060   -19.5280    -8.9860 hc         1 GAZ       0.042200
     35 HG13       -10.8210   -21.7610    -8.6130 hc         1 GAZ       0.075200
     36 HG12       -10.4460   -21.8430   -10.3660 hc         1 GAZ       0.075200
     37 H21        -11.9310   -22.6430   -11.7100 hn         1 GAZ       0.328500
     38 HA21       -14.3210   -23.9790   -10.7480 h1         1 GAZ       0.104700
     39 HB21       -14.6470   -21.4010   -12.3780 h1         1 GAZ       0.089700
     40 HB22       -15.7930   -22.7260   -12.6350 h1         1 GAZ       0.089700
     41 H31        -15.4830   -25.1200   -12.5340 hn         1 GAZ       0.302500
     42 HA32       -13.7500   -26.8040   -14.0080 h1         1 GAZ       0.037200
     43 HA31       -14.2970   -25.5420   -15.1440 h1         1 GAZ       0.037200
     44 H011       -20.9240   -23.4060    -8.8450 ha         1 GAZ       0.133000
     45 H041       -18.9390   -27.8920    -9.6960 ha         1 GAZ       0.118000
     46 H051       -17.6670   -25.8850   -10.2210 ha         1 GAZ       0.146000
     47 H112       -24.1940   -24.4040    -7.5100 h1         1 GAZ       0.033700
     48 H111       -22.6230   -23.6410    -7.1870 h1         1 GAZ       0.033700
     49 H113       -23.3010   -23.6330    -8.8380 h1         1 GAZ       0.033700
     50 H121       -16.3970   -24.2040   -10.1070 h4         1 GAZ       0.230000
     51 H143       -21.7130   -30.0230    -8.5480 h1         1 GAZ       0.035700
     52 H141       -20.7310   -29.4630    -9.9180 h1         1 GAZ       0.035700
     53 H142       -20.0490   -29.4680    -8.2690 h1         1 GAZ       0.035700
     54 H1         -14.9690   -22.0370    -9.7620 hs         1 GAZ       0.356000
     55 H4          -9.0430   -17.3510    -8.9190 hn         1 GAZ       0.379000
     56 H5         -10.0400   -17.3890   -10.1810 hn         1 GAZ       0.379000
     57 O08        -21.4480   -27.9530    -8.6530 os         1 GAZ      -0.342100
     58 O10        -22.5370   -25.4780    -8.1950 os         1 GAZ      -0.344100
@<TRIPOS>BOND
     1     1     2 1   
     2     1    55 1   
     3     1    56 1   
     4     2     3 1   
     5     2     6 1   
     6     2    32 1   
     7     3     4 1   
     8     3     5 1   
     9     6     7 1   
    10     6    33 1   
    11     6    34 1   
    12     7     8 1   
    13     7    35 1   
    14     7    36 1   
    15     8     9 2   
    16     8    10 1   
    17    10    11 1   
    18    10    37 1   
    19    11    12 1   
    20    11    14 1   
    21    11    38 1   
    22    12    13 2   
    23    12    16 1   
    24    14    15 1   
    25    14    39 1   
    26    14    40 1   
    27    15    30 2   
    28    15    54 1   
    29    16    17 1   
    30    16    41 1   
    31    17    18 1   
    32    17    42 1   
    33    17    43 1   
    34    18    19 1   
    35    18    20 1   
    36    21    22 ar  
    37    21    26 ar  
    38    21    44 1   
    39    22    23 ar  
    40    22    58 1   
    41    23    24 ar  
    42    23    57 1   
    43    24    25 ar  
    44    24    45 1   
    45    25    26 ar  
    46    25    46 1   
    47    26    27 1   
    48    27    28 2   
    49    27    30 1   
    50    29    47 1   
    51    29    48 1   
    52    29    49 1   
    53    29    58 1   
    54    30    50 1   
    55    31    51 1   
    56    31    52 1   
    57    31    53 1   
    58    31    57 1   
@<TRIPOS>SUBSTRUCTURE
     1 GAZ         1 TEMP              0 ****  ****    0 ROOT
