@<TRIPOS>MOLECULE
GAZ
   58    58     1     0     0
SMALL
abcg2


@<TRIPOS>ATOM
      1 N1         -10.5110   -21.4850    -6.8020 n8         1 GAZ      -0.998200
      2 CA1        -10.5990   -21.3460    -8.2650 c3         1 GAZ       0.018500
      3 C1         -10.5850   -19.8720    -8.7470 c          1 GAZ       0.678000
      4 O11        -11.2820   -19.0570    -8.0870 o          1 GAZ      -0.741500
      5 O12         -9.9050   -19.6060    -9.7710 o          1 GAZ      -0.741500
      6 CB1        -11.8740   -22.0450    -8.7500 c3         1 GAZ      -0.039400
      7 CG1        -11.9770   -22.1240   -10.2670 c3         1 GAZ      -0.148400
      8 CD1        -13.2390   -22.8060   -10.7550 c          1 GAZ       0.600100
      9 OE1        -13.8910   -23.5890   -10.0680 o          1 GAZ      -0.617100
     10 N2         -13.5870   -22.4850   -12.0270 ns         1 GAZ      -0.518900
     11 CA2        -14.6320   -23.1530   -12.7650 c3         1 GAZ       0.021700
     12 C2         -14.0270   -23.9570   -13.9290 c          1 GAZ       0.586100
     13 O2         -13.0290   -23.5470   -14.5200 o          1 GAZ      -0.627100
     14 CB2        -15.6440   -22.1570   -13.3280 c3         1 GAZ       0.047900
     15 SG2        -16.5620   -21.2500   -12.0120 s4         1 GAZ       0.202700
     16 N3         -14.6950   -25.0700   -14.2540 ns         1 GAZ      -0.449900
     17 CA3        -14.2330   -25.9970   -15.2660 c3         1 GAZ      -0.052000
     18 C3         -13.2340   -27.0760   -14.7670 c          1 GAZ       0.703000
     19 O31        -12.9600   -27.1140   -13.5460 o          1 GAZ      -0.727500
     20 O32        -12.8000   -27.8320   -15.6700 o          1 GAZ      -0.727500
     21 C01        -20.2300   -23.8830    -9.5750 ca         1 GAZ      -0.129000
     22 C02        -20.7200   -24.7980    -8.6600 ca         1 GAZ       0.075100
     23 C03        -19.8190   -25.6230    -7.9470 ca         1 GAZ       0.105100
     24 C04        -18.4550   -25.4930    -8.1780 ca         1 GAZ      -0.179000
     25 C05        -17.9770   -24.5590    -9.0940 ca         1 GAZ      -0.059000
     26 C06        -18.8530   -23.7440    -9.8020 ca         1 GAZ      -0.117600
     27 C07        -18.4060   -22.7350   -10.8230 c          1 GAZ       0.628900
     28 O09        -19.2520   -22.2800   -11.6350 o          1 GAZ      -0.700100
     29 C11        -22.9830   -24.1600    -9.0640 c3         1 GAZ       0.149900
     30 C12        -17.0550   -22.3500   -10.8060 ce         1 GAZ      -0.924200
     31 C14        -19.5060   -27.3690    -6.3500 c3         1 GAZ       0.148900
     32 HA11        -9.7340   -21.8510    -8.7000 h1         1 GAZ       0.043700
     33 HB12       -12.7400   -21.5120    -8.3450 hc         1 GAZ       0.042200
     34 HB11       -11.8950   -23.0520    -8.3290 hc         1 GAZ       0.042200
     35 HG13       -11.1350   -22.7010   -10.6660 hc         1 GAZ       0.075200
     36 HG12       -11.9060   -21.1340   -10.7200 hc         1 GAZ       0.075200
     37 H21        -12.9490   -21.9170   -12.5650 hn         1 GAZ       0.328500
     38 HA21       -15.1400   -23.8250   -12.0740 h1         1 GAZ       0.104700
     39 HB21       -15.1670   -21.3900   -13.9410 h1         1 GAZ       0.089700
     40 HB22       -16.4150   -22.6590   -13.9110 h1         1 GAZ       0.089700
     41 H31        -15.4260   -25.3800   -13.6330 hn         1 GAZ       0.302500
     42 HA32       -13.7590   -25.4330   -16.0670 h1         1 GAZ       0.037200
     43 HA31       -15.1000   -26.5080   -15.6870 h1         1 GAZ       0.037200
     44 H011       -20.9020   -23.2530   -10.1370 ha         1 GAZ       0.133000
     45 H041       -17.7540   -26.1230    -7.6500 ha         1 GAZ       0.118000
     46 H051       -16.9100   -24.5000    -9.2580 ha         1 GAZ       0.146000
     47 H112       -23.9600   -24.4550    -8.6910 h1         1 GAZ       0.033700
     48 H111       -22.8100   -23.1020    -8.8500 h1         1 GAZ       0.033700
     49 H113       -22.9380   -24.3220   -10.1440 h1         1 GAZ       0.033700
     50 H121       -16.2930   -22.7700   -10.1740 h4         1 GAZ       0.230000
     51 H143       -20.1520   -27.9830    -5.7280 h1         1 GAZ       0.035700
     52 H141       -18.9330   -28.0070    -7.0270 h1         1 GAZ       0.035700
     53 H142       -18.8210   -26.7990    -5.7190 h1         1 GAZ       0.035700
     54 H1         -15.4650   -20.7180   -11.4400 hs         1 GAZ       0.356000
     55 H4          -9.6160   -21.1170    -6.4920 hn         1 GAZ       0.379000
     56 H5         -11.2050   -20.8610    -6.3970 hn         1 GAZ       0.379000
     57 O08        -20.3760   -26.5020    -7.0770 os         1 GAZ      -0.342100
     58 O10        -22.0390   -24.9820    -8.3810 os         1 GAZ      -0.344100
@<TRIPOS>BOND
     1     1     2 1   
     2     1    55 1   
     3     1    56 1   
     4     2     3 1   
     5     2     6 1   
     6     2    32 1   
     7     3     4 1   
     8     3     5 1   
     9     6     7 1   
    10     6    33 1   
    11     6    34 1   
    12     7     8 1   
    13     7    35 1   
    14     7    36 1   
    15     8     9 2   
    16     8    10 1   
    17    10    11 1   
    18    10    37 1   
    19    11    12 1   
    20    11    14 1   
    21    11    38 1   
    22    12    13 2   
    23    12    16 1   
    24    14    15 1   
    25    14    39 1   
    26    14    40 1   
    27    15    30 2   
    28    15    54 1   
    29    16    17 1   
    30    16    41 1   
    31    17    18 1   
    32    17    42 1   
    33    17    43 1   
    34    18    19 1   
    35    18    20 1   
    36    21    22 ar  
    37    21    26 ar  
    38    21    44 1   
    39    22    23 ar  
    40    22    58 1   
    41    23    24 ar  
    42    23    57 1   
    43    24    25 ar  
    44    24    45 1   
    45    25    26 ar  
    46    25    46 1   
    47    26    27 1   
    48    27    28 2   
    49    27    30 1   
    50    29    47 1   
    51    29    48 1   
    52    29    49 1   
    53    29    58 1   
    54    30    50 1   
    55    31    51 1   
    56    31    52 1   
    57    31    53 1   
    58    31    57 1   
@<TRIPOS>SUBSTRUCTURE
     1 GAZ         1 TEMP              0 ****  ****    0 ROOT
