@<TRIPOS>MOLECULE
GB3
   41    42     1     0     0
SMALL
bcc


@<TRIPOS>ATOM
      1 C15          2.9770     0.4420     1.2070 ca         1 GB3      -0.113500
      2 C14          4.1660     0.7230     1.8700 ca         1 GB3      -0.131500
      3 C13          5.3690     0.2150     1.4010 ca         1 GB3      -0.131000
      4 C12          5.3730    -0.5820     0.2620 ca         1 GB3      -0.131500
      5 C11          4.1850    -0.8560    -0.3980 ca         1 GB3      -0.113500
      6 C10          2.9710    -0.3460     0.0610 ca         1 GB3      -0.059300
      7 C8           1.6990    -0.6520    -0.7060 c3         1 GB3       0.226800
      8 C9           1.7380     0.0220    -2.0810 c3         1 GB3       0.103400
      9 O9           1.8020     1.4170    -1.8920 oh         1 GB3      -0.588800
     10 N7           0.5150    -0.3250     0.0640 n7         1 GB3      -0.807200
     11 C6          -0.6990    -0.9630    -0.3970 c3         1 GB3       0.180800
     12 C5          -1.8830    -0.5070     0.4430 c5         1 GB3       0.153500
     13 N1          -2.0720     0.9440     0.3350 n7         1 GB3      -0.786200
     14 C2          -3.3120     1.1540    -0.4140 c5         1 GB3       0.156500
     15 C3          -4.2110    -0.0160    -0.0210 c5         1 GB3       0.080100
     16 O3          -4.7240     0.1890     1.2720 oh         1 GB3      -0.593800
     17 C4          -3.1970    -1.1660    -0.0280 c5         1 GB3       0.079100
     18 O4          -3.5430    -2.2360     0.8210 oh         1 GB3      -0.589800
     19 C21         -3.8870     2.5380    -0.1910 c3         1 GB3      -0.084100
     20 H15          2.0470     0.8300     1.6000 ha         1 GB3       0.130500
     21 H14          4.1500     1.3420     2.7590 ha         1 GB3       0.126500
     22 H13          6.2940     0.4300     1.9200 ha         1 GB3       0.127000
     23 H12          6.3030    -0.9930    -0.1100 ha         1 GB3       0.126500
     24 H11          4.2020    -1.4830    -1.2830 ha         1 GB3       0.130500
     25 H8           1.6810    -1.7320    -0.8940 h1         1 GB3       0.059700
     26 H91          2.5990    -0.3540    -2.6490 h1         1 GB3       0.021200
     27 H92          0.8420    -0.2670    -2.6430 h1         1 GB3       0.021200
     28 HO9          1.5370     1.8430    -2.7120 ho         1 GB3       0.401000
     29 HN7          0.3580     0.6770     0.0430 hn         1 GB3       0.387800
     30 H61         -0.5930    -2.0490    -0.3050 h1         1 GB3       0.026200
     31 H62         -0.9230    -0.7600    -1.4570 h1         1 GB3       0.026200
     32 H5          -1.6880    -0.7740     1.4860 h1         1 GB3       0.083700
     33 HN1         -2.1980     1.3270     1.2640 hn         1 GB3       0.366800
     34 H2          -3.0950     1.0410    -1.4840 h1         1 GB3       0.058700
     35 H3          -5.0180    -0.1740    -0.7500 h1         1 GB3       0.050700
     36 HO3         -4.7790    -0.6750     1.6990 ho         1 GB3       0.419000
     37 H4          -3.0820    -1.5170    -1.0630 h1         1 GB3       0.043700
     38 HO4         -4.1850    -2.7930     0.3680 ho         1 GB3       0.409000
     39 H211        -3.1630     3.3000    -0.4810 hc         1 GB3       0.045033
     40 H212        -4.7860     2.6880    -0.7880 hc         1 GB3       0.045033
     41 H213        -4.1430     2.6990     0.8570 hc         1 GB3       0.045033
@<TRIPOS>BOND
     1     1     2 ar  
     2     1     6 ar  
     3     1    20 1   
     4     2     3 ar  
     5     2    21 1   
     6     3     4 ar  
     7     3    22 1   
     8     4     5 ar  
     9     4    23 1   
    10     5     6 ar  
    11     5    24 1   
    12     6     7 1   
    13     7     8 1   
    14     7    10 1   
    15     7    25 1   
    16     8     9 1   
    17     8    26 1   
    18     8    27 1   
    19     9    28 1   
    20    10    11 1   
    21    10    29 1   
    22    11    12 1   
    23    11    30 1   
    24    11    31 1   
    25    12    13 1   
    26    12    17 1   
    27    12    32 1   
    28    13    14 1   
    29    13    33 1   
    30    14    15 1   
    31    14    19 1   
    32    14    34 1   
    33    15    16 1   
    34    15    17 1   
    35    15    35 1   
    36    16    36 1   
    37    17    18 1   
    38    17    37 1   
    39    18    38 1   
    40    19    39 1   
    41    19    40 1   
    42    19    41 1   
@<TRIPOS>SUBSTRUCTURE
     1 GB3         1 TEMP              0 ****  ****    0 ROOT
