@<TRIPOS>MOLECULE
GB3
   41    42     1     0     0
SMALL
No Charge or Current Charge


@<TRIPOS>ATOM
      1 C15          3.2000     0.9120     0.6700 ca         1 GB3      -0.095500
      2 C14          4.3560     1.1950     1.4180 ca         1 GB3      -0.113500
      3 C13          5.3750     0.2350     1.5290 ca         1 GB3      -0.113000
      4 C12          5.2360    -1.0080     0.8910 ca         1 GB3      -0.113500
      5 C11          4.0800    -1.2920     0.1430 ca         1 GB3      -0.095500
      6 C10          3.0490    -0.3350     0.0240 ca         1 GB3      -0.059300
      7 C8           1.7980    -0.6630    -0.8030 c3         1 GB3       0.226800
      8 C9           1.7680     0.1280    -2.1520 c3         1 GB3       0.126600
      9 O9           1.4270     1.5170    -1.9610 oh         1 GB3      -0.651000
     10 N7           0.5720    -0.4190    -0.0060 n7         1 GB3      -0.862400
     11 C6          -0.6730    -1.0450    -0.5040 c3         1 GB3       0.180800
     12 C5          -1.9190    -0.5720     0.3020 c5         1 GB3       0.153500
     13 N1          -2.0740     0.9260     0.3240 n7         1 GB3      -0.841400
     14 C2          -3.4000     1.1920    -0.2880 c5         1 GB3       0.156500
     15 C3          -4.2720    -0.0330     0.1440 c5         1 GB3       0.103300
     16 O3          -4.5730    -0.0680     1.5500 oh         1 GB3      -0.656000
     17 C4          -3.2700    -1.1540    -0.2520 c5         1 GB3       0.102300
     18 O4          -3.6260    -2.4240     0.3180 oh         1 GB3      -0.652000
     19 C21         -3.9560     2.5720     0.1240 c3         1 GB3      -0.084100
     20 H15          2.4190     1.6650     0.5940 ha         1 GB3       0.112500
     21 H14          4.4610     2.1580     1.9120 ha         1 GB3       0.108500
     22 H13          6.2700     0.4540     2.1070 ha         1 GB3       0.109000
     23 H12          6.0240    -1.7530     0.9750 ha         1 GB3       0.108500
     24 H11          3.9870    -2.2590    -0.3470 ha         1 GB3       0.112500
     25 H8           1.8520    -1.7320    -1.0570 h1         1 GB3       0.059700
     26 H91          2.7500     0.0410    -2.6360 h1         1 GB3       0.021200
     27 H92          1.0370    -0.3420    -2.8210 h1         1 GB3       0.021200
     28 HO9          1.4220     1.9370    -2.8490 ho         1 GB3       0.440000
     29 HN7          0.4100     0.5960    -0.0510 hn         1 GB3       0.443000
     30 H61         -0.6020    -2.1390    -0.4410 h1         1 GB3       0.026200
     31 H62         -0.8340    -0.7830    -1.5590 h1         1 GB3       0.026200
     32 H5          -1.7720    -0.9260     1.3340 h1         1 GB3       0.083700
     33 HN1         -2.1410     1.2050     1.3100 hn         1 GB3       0.422000
     34 H2          -3.3030     1.1940    -1.3840 h1         1 GB3       0.058700
     35 H3          -5.1960    -0.0920    -0.4490 h1         1 GB3       0.050700
     36 HO3         -4.4220    -1.0050     1.8120 ho         1 GB3       0.458000
     37 H4          -3.2200    -1.2350    -1.3480 h1         1 GB3       0.043700
     38 HO4         -4.3160    -2.8200    -0.2610 ho         1 GB3       0.448000
     39 H211        -3.2990     3.3780    -0.2250 hc         1 GB3       0.045033
     40 H212        -4.9470     2.7380    -0.3140 hc         1 GB3       0.045033
     41 H213        -4.0500     2.6620     1.2120 hc         1 GB3       0.045033
@<TRIPOS>BOND
     1     1     2 ar  
     2     1     6 ar  
     3     1    20 1   
     4     2     3 ar  
     5     2    21 1   
     6     3     4 ar  
     7     3    22 1   
     8     4     5 ar  
     9     4    23 1   
    10     5     6 ar  
    11     5    24 1   
    12     6     7 1   
    13     7     8 1   
    14     7    10 1   
    15     7    25 1   
    16     8     9 1   
    17     8    26 1   
    18     8    27 1   
    19     9    28 1   
    20    10    11 1   
    21    10    29 1   
    22    11    12 1   
    23    11    30 1   
    24    11    31 1   
    25    12    13 1   
    26    12    17 1   
    27    12    32 1   
    28    13    14 1   
    29    13    33 1   
    30    14    15 1   
    31    14    19 1   
    32    14    34 1   
    33    15    16 1   
    34    15    17 1   
    35    15    35 1   
    36    16    36 1   
    37    17    18 1   
    38    17    37 1   
    39    18    38 1   
    40    19    39 1   
    41    19    40 1   
    42    19    41 1   
@<TRIPOS>SUBSTRUCTURE
     1 GB3         1 TEMP              0 ****  ****    0 ROOT
