@<TRIPOS>MOLECULE
GB4
   21    21     1     0     0
SMALL
No Charge or Current Charge


@<TRIPOS>ATOM
      1 O12         -2.4600     0.4580     4.8500 o          1 GB4      -0.568100
      2 C11         -2.7110     0.0360     3.7290 c          1 GB4       0.605300
      3 N13         -4.0060    -0.0680     3.2380 ns         1 GB4      -0.387400
      4 O14         -5.1510     0.0670     4.1150 oh         1 GB4      -0.422100
      5 C10         -1.6550    -0.3960     2.7720 ce         1 GB4      -0.296200
      6 C9          -0.3140    -0.3810     3.0420 cf         1 GB4      -0.074200
      7 C1           0.8260    -0.7780     2.1760 ca         1 GB4      -0.064800
      8 C6           2.1580    -0.8120     2.6700 ca         1 GB4       0.145000
      9 Cl8          2.5490    -0.3980     4.3420 cl         1 GB4      -0.179000
     10 C5           3.2210    -1.1890     1.8330 ca         1 GB4      -0.103000
     11 C2           0.6050    -1.1310     0.8240 ca         1 GB4      -0.079000
     12 C3           1.6740    -1.5070    -0.0070 ca         1 GB4      -0.107000
     13 C4           2.9800    -1.5360     0.4980 ca         1 GB4       0.135000
     14 Cl7          4.3170    -2.0060    -0.5450 cl         1 GB4      -0.183000
     15 HN13        -4.1670    -0.5590     2.3600 hn         1 GB4       0.333500
     16 HO14        -5.7270     0.7150     3.6450 ho         1 GB4       0.445000
     17 H10         -2.0120    -0.7450     1.8070 ha         1 GB4       0.178000
     18 H9          -0.0320    -0.0200     4.0340 ha         1 GB4       0.215000
     19 H5           4.2350    -1.2130     2.2220 ha         1 GB4       0.148000
     20 H2          -0.3940    -1.1130     0.3990 ha         1 GB4       0.121000
     21 H3           1.4890    -1.7740    -1.0450 ha         1 GB4       0.136000
@<TRIPOS>BOND
     1     1     2 2   
     2     2     3 1   
     3     2     5 1   
     4     3     4 1   
     5     3    15 1   
     6     4    16 1   
     7     5     6 2   
     8     5    17 1   
     9     6     7 1   
    10     6    18 1   
    11     7     8 ar  
    12     7    11 ar  
    13     8     9 1   
    14     8    10 ar  
    15    10    13 ar  
    16    10    19 1   
    17    11    12 ar  
    18    11    20 1   
    19    12    13 ar  
    20    12    21 1   
    21    13    14 1   
@<TRIPOS>SUBSTRUCTURE
     1 GB4         1 TEMP              0 ****  ****    0 ROOT
