@<TRIPOS>MOLECULE
GB4
   21    21     1     0     0
SMALL
abcg2


@<TRIPOS>ATOM
      1 O12         -2.4410     0.6810     4.6680 o          1 GB4      -0.568100
      2 C11         -2.6740     0.0370     3.6590 c          1 GB4       0.605300
      3 N13         -3.9200    -0.2580     3.2350 ns         1 GB4      -0.387400
      4 O14         -4.9870    -0.0060     4.0380 oh         1 GB4      -0.422100
      5 C10         -1.6310    -0.4800     2.7430 ce         1 GB4      -0.296200
      6 C9          -0.3390    -0.2690     3.0040 cf         1 GB4      -0.074200
      7 C1           0.7730    -0.7100     2.1660 ca         1 GB4      -0.064800
      8 C6           2.0700    -0.8430     2.6730 ca         1 GB4       0.145000
      9 CL8          2.4000    -0.5160     4.3400 cl         1 GB4      -0.179000
     10 C5           3.1320    -1.2550     1.8850 ca         1 GB4      -0.103000
     11 C2           0.5930    -1.0030     0.8100 ca         1 GB4      -0.079000
     12 C3           1.6330    -1.4160     0.0010 ca         1 GB4      -0.107000
     13 C4           2.9010    -1.5390     0.5500 ca         1 GB4       0.135000
     14 CL7          4.2190    -2.0460    -0.4430 cl         1 GB4      -0.183000
     15 HN13        -4.0960    -0.9160     2.4890 hn         1 GB4       0.333500
     16 HO14        -5.3660     0.8270     3.7290 ho         1 GB4       0.445000
     17 H10         -1.9510    -1.0390     1.8700 ha         1 GB4       0.178000
     18 H9          -0.0870     0.2700     3.9100 ha         1 GB4       0.215000
     19 H5           4.1220    -1.3530     2.3080 ha         1 GB4       0.148000
     20 H2          -0.3870    -0.8870     0.3680 ha         1 GB4       0.121000
     21 H3           1.4600    -1.6300    -1.0440 ha         1 GB4       0.136000
@<TRIPOS>BOND
     1     1     2 2   
     2     2     3 1   
     3     2     5 1   
     4     3     4 1   
     5     3    15 1   
     6     4    16 1   
     7     5     6 2   
     8     5    17 1   
     9     6     7 1   
    10     6    18 1   
    11     7     8 ar  
    12     7    11 ar  
    13     8     9 1   
    14     8    10 ar  
    15    10    13 ar  
    16    10    19 1   
    17    11    12 ar  
    18    11    20 1   
    19    12    13 ar  
    20    12    21 1   
    21    13    14 1   
@<TRIPOS>SUBSTRUCTURE
     1 GB4         1 TEMP              0 ****  ****    0 ROOT
