@<TRIPOS>MOLECULE
GB5
   21    21     1     0     0
SMALL
No Charge or Current Charge


@<TRIPOS>ATOM
      1 O12          2.0810    -1.4690    -4.4230 o          1 GB5      -0.574100
      2 C11          1.0630    -1.0420    -3.8940 c          1 GB5       0.605300
      3 N13         -0.0550    -0.6560    -4.6200 ns         1 GB5      -0.385400
      4 O14          0.0070    -0.4870    -6.0570 oh         1 GB5      -0.424100
      5 C10          0.9160    -0.9040    -2.4190 ce         1 GB5      -0.302200
      6 C9           1.8860    -1.2250    -1.5110 cf         1 GB5      -0.071200
      7 C1           1.8580    -1.1330    -0.0360 ca         1 GB5      -0.076800
      8 C2           0.7220    -0.6600     0.6580 ca         1 GB5      -0.078500
      9 C3           0.7270    -0.5840     2.0630 ca         1 GB5      -0.108000
     10 C4           1.8630    -0.9790     2.7850 ca         1 GB5       0.132000
     11 Cl1          1.8660    -0.8830     4.5420 cl         1 GB5      -0.195000
     12 C5           2.9960    -1.4500     2.1060 ca         1 GB5      -0.108000
     13 C6           2.9940    -1.5260     0.7020 ca         1 GB5      -0.078500
     14 HN13        -0.8160    -0.1740    -4.1430 hn         1 GB5       0.334500
     15 HO14        -0.7690    -1.0010    -6.3850 ho         1 GB5       0.446000
     16 H10         -0.0400    -0.5200    -2.0750 ha         1 GB5       0.179000
     17 H9           2.8290    -1.6070    -1.9110 ha         1 GB5       0.200000
     18 H2          -0.1700    -0.3480     0.1230 ha         1 GB5       0.119500
     19 H3          -0.1510    -0.2200     2.5910 ha         1 GB5       0.132500
     20 H5           3.8760    -1.7560     2.6670 ha         1 GB5       0.132500
     21 H6           3.8800    -1.8940     0.1900 ha         1 GB5       0.119500
@<TRIPOS>BOND
     1     1     2 2   
     2     2     3 1   
     3     2     5 1   
     4     3     4 1   
     5     3    14 1   
     6     4    15 1   
     7     5     6 2   
     8     5    16 1   
     9     6     7 1   
    10     6    17 1   
    11     7     8 ar  
    12     7    13 ar  
    13     8     9 ar  
    14     8    18 1   
    15     9    10 ar  
    16     9    19 1   
    17    10    11 1   
    18    10    12 ar  
    19    12    13 ar  
    20    12    20 1   
    21    13    21 1   
@<TRIPOS>SUBSTRUCTURE
     1 GB5         1 TEMP              0 ****  ****    0 ROOT
