@<TRIPOS>MOLECULE
GB5
   21    21     1     0     0
SMALL
bcc


@<TRIPOS>ATOM
      1 O12          2.0570    -1.4050    -4.3610 o          1 GB5      -0.574100
      2 C11          1.0440    -0.9750    -3.8330 c          1 GB5       0.672300
      3 N13         -0.0540    -0.6070    -4.5260 ns         1 GB5      -0.452400
      4 O14          0.0020    -0.5050    -5.8810 oh         1 GB5      -0.385100
      5 C10          0.8650    -0.8320    -2.3710 ce         1 GB5      -0.252200
      6 C9           1.8360    -1.2010    -1.5320 cf         1 GB5      -0.021200
      7 C1           1.8110    -1.1190    -0.0750 ca         1 GB5      -0.076800
      8 C2           0.7140    -0.6370     0.6460 ca         1 GB5      -0.096500
      9 C3           0.7400    -0.5760     2.0260 ca         1 GB5      -0.126000
     10 C4           1.8740    -1.0010     2.7050 ca         1 GB5       0.040400
     11 CL1          1.9080    -0.9240     4.4330 cl         1 GB5      -0.103400
     12 C5           2.9760    -1.4860     2.0210 ca         1 GB5      -0.126000
     13 C6           2.9350    -1.5410     0.6370 ca         1 GB5      -0.096500
     14 HN13        -0.8230    -0.1120    -4.0970 hn         1 GB5       0.334500
     15 HO14        -0.3590    -1.3300    -6.2300 ho         1 GB5       0.407000
     16 H10         -0.0710    -0.4190    -2.0110 ha         1 GB5       0.129000
     17 H9           2.7490    -1.6080    -1.9570 ha         1 GB5       0.150000
     18 H2          -0.1770    -0.3010     0.1330 ha         1 GB5       0.137500
     19 H3          -0.1170    -0.1990     2.5690 ha         1 GB5       0.150500
     20 H5           3.8560    -1.8190     2.5540 ha         1 GB5       0.150500
     21 H6           3.7960    -1.9210     0.1020 ha         1 GB5       0.137500
@<TRIPOS>BOND
     1     1     2 2   
     2     2     3 1   
     3     2     5 1   
     4     3     4 1   
     5     3    14 1   
     6     4    15 1   
     7     5     6 2   
     8     5    16 1   
     9     6     7 1   
    10     6    17 1   
    11     7     8 ar  
    12     7    13 ar  
    13     8     9 ar  
    14     8    18 1   
    15     9    10 ar  
    16     9    19 1   
    17    10    11 1   
    18    10    12 ar  
    19    12    13 ar  
    20    12    20 1   
    21    13    21 1   
@<TRIPOS>SUBSTRUCTURE
     1 GB5         1 TEMP              0 ****  ****    0 ROOT
