@<TRIPOS>MOLECULE
GB6
   37    38     1     0     0
SMALL
No Charge or Current Charge


@<TRIPOS>ATOM
      1 C15         -4.0290     0.4840    -1.0570 ca         1 GB6      -0.090500
      2 C14         -5.3430     0.5260    -0.5580 ca         1 GB6      -0.115000
      3 C13         -5.5860     0.3020     0.8070 ca         1 GB6      -0.104000
      4 C12         -4.5140     0.0360     1.6730 ca         1 GB6      -0.115000
      5 C11         -3.1990    -0.0060     1.1750 ca         1 GB6      -0.090500
      6 C10         -2.9440     0.2170    -0.1950 ca         1 GB6      -0.097300
      7 C8          -1.5180     0.1740    -0.7540 c3         1 GB6       0.238800
      8 C9          -0.9810    -1.2970    -0.8890 c3         1 GB6       0.167600
      9 O9          -0.7600    -1.9490     0.3810 oh         1 GB6      -0.651000
     10 N7          -0.6380     1.0690     0.0460 n7         1 GB6      -0.885400
     11 C6           0.6950     1.3890    -0.5200 c3         1 GB6       0.151800
     12 C5           1.8410     0.9460     0.4300 c5         1 GB6       0.098700
     13 N1           1.8900    -0.5130     0.5750 ns         1 GB6      -0.474900
     14 C2           2.7590    -1.1260    -0.2820 c          1 GB6       0.525000
     15 O2           2.8310    -2.3360    -0.4320 o          1 GB6      -0.565000
     16 C3           3.6130    -0.0120    -0.9400 c5         1 GB6       0.033300
     17 O3           5.0320    -0.3150    -0.9400 oh         1 GB6      -0.653000
     18 C4           3.2800     1.2620    -0.1120 c5         1 GB6       0.167300
     19 O4           4.2300     1.4010     0.9460 oh         1 GB6      -0.651000
     20 H15         -3.8560     0.6590    -2.1170 ha         1 GB6       0.118500
     21 H14         -6.1730     0.7320    -1.2310 ha         1 GB6       0.113000
     22 H13         -6.6030     0.3340     1.1920 ha         1 GB6       0.113000
     23 H12         -4.6990    -0.1380     2.7310 ha         1 GB6       0.113000
     24 H11         -2.3750    -0.2120     1.8550 ha         1 GB6       0.118500
     25 H8          -1.5670     0.5770    -1.7750 h1         1 GB6       0.025700
     26 H9          -1.7080    -1.8710    -1.4780 h1         1 GB6       0.020200
     27 H9A         -0.0470    -1.2820    -1.4660 h1         1 GB6       0.020200
     28 HO9         -0.6840    -2.9100     0.1950 ho         1 GB6       0.448000
     29 HN7         -1.1480     1.9500     0.1790 hn         1 GB6       0.430000
     30 H6           0.8370     0.9120    -1.5000 h1         1 GB6       0.037700
     31 H6A          0.7790     2.4730    -0.6770 h1         1 GB6       0.037700
     32 H5           1.6830     1.4440     1.3970 h1         1 GB6       0.091700
     33 HN1          1.1260    -1.0680     0.9500 hn         1 GB6       0.359500
     34 H3           3.2420     0.1050    -1.9680 h1         1 GB6       0.058700
     35 HO3          5.1410    -1.2040    -1.3540 ho         1 GB6       0.478000
     36 H4           3.2850     2.1640    -0.7410 h1         1 GB6       0.054700
     37 HO4          4.9920     0.8570     0.6290 ho         1 GB6       0.470000
@<TRIPOS>BOND
     1     1     2 ar  
     2     1     6 ar  
     3     1    20 1   
     4     2     3 ar  
     5     2    21 1   
     6     3     4 ar  
     7     3    22 1   
     8     4     5 ar  
     9     4    23 1   
    10     5     6 ar  
    11     5    24 1   
    12     6     7 1   
    13     7     8 1   
    14     7    10 1   
    15     7    25 1   
    16     8     9 1   
    17     8    26 1   
    18     8    27 1   
    19     9    28 1   
    20    10    11 1   
    21    10    29 1   
    22    11    12 1   
    23    11    30 1   
    24    11    31 1   
    25    12    13 1   
    26    12    18 1   
    27    12    32 1   
    28    13    14 1   
    29    13    33 1   
    30    14    15 2   
    31    14    16 1   
    32    16    17 1   
    33    16    18 1   
    34    16    34 1   
    35    17    35 1   
    36    18    19 1   
    37    18    36 1   
    38    19    37 1   
@<TRIPOS>SUBSTRUCTURE
     1 GB6         1 TEMP              0 ****  ****    0 ROOT
