@<TRIPOS>MOLECULE
GB6
   37    38     1     0     0
SMALL
abcg2


@<TRIPOS>ATOM
      1 C15         -3.9980     0.3300    -1.0390 ca         1 GB6      -0.090500
      2 C14         -5.2810     0.2660    -0.5130 ca         1 GB6      -0.115000
      3 C13         -5.4650     0.1600     0.8600 ca         1 GB6      -0.104000
      4 C12         -4.3570     0.1170     1.6960 ca         1 GB6      -0.115000
      5 C11         -3.0750     0.1730     1.1660 ca         1 GB6      -0.090500
      6 C10         -2.8810     0.2830    -0.2090 ca         1 GB6      -0.097300
      7 C8          -1.4970     0.3140    -0.8150 c3         1 GB6       0.238800
      8 C9          -1.0100    -1.1060    -1.0880 c3         1 GB6       0.167600
      9 O9          -0.9380    -1.8400     0.1120 oh         1 GB6      -0.651000
     10 N7          -0.5910     1.0480     0.0510 n7         1 GB6      -0.885400
     11 C6           0.7050     1.4070    -0.5050 c3         1 GB6       0.151800
     12 C5           1.8210     0.9220     0.4150 c5         1 GB6       0.098700
     13 N1           1.7870    -0.5190     0.5870 ns         1 GB6      -0.474900
     14 C2           2.7210    -1.1730    -0.1120 c          1 GB6       0.525000
     15 O2           2.9280    -2.3750    -0.1500 o          1 GB6      -0.565000
     16 C3           3.4940    -0.1310    -0.9080 c5         1 GB6       0.033300
     17 O3           4.8520    -0.4140    -1.0540 oh         1 GB6      -0.653000
     18 C4           3.2370     1.1560    -0.1260 c5         1 GB6       0.167300
     19 O4           4.1130     1.2650     0.9660 oh         1 GB6      -0.651000
     20 H15         -3.8630     0.4210    -2.1110 ha         1 GB6       0.118500
     21 H14         -6.1360     0.3070    -1.1750 ha         1 GB6       0.113000
     22 H13         -6.4650     0.1160     1.2740 ha         1 GB6       0.113000
     23 H12         -4.4900     0.0380     2.7680 ha         1 GB6       0.113000
     24 H11         -2.2190     0.1420     1.8260 ha         1 GB6       0.118500
     25 H8          -1.5840     0.7790    -1.8120 h1         1 GB6       0.025700
     26 H9          -1.7070    -1.5640    -1.8000 h1         1 GB6       0.020200
     27 H9A         -0.0350    -1.0650    -1.5920 h1         1 GB6       0.020200
     28 HO9         -0.6760    -2.7390    -0.1060 ho         1 GB6       0.448000
     29 HN7         -1.0550     1.8810     0.3840 hn         1 GB6       0.430000
     30 H6           0.8330     0.9880    -1.5090 h1         1 GB6       0.037700
     31 H6A          0.7940     2.4910    -0.6190 h1         1 GB6       0.037700
     32 H5           1.7040     1.4150     1.3840 h1         1 GB6       0.091700
     33 HN1          0.9740    -0.9800     0.9750 hn         1 GB6       0.359500
     34 H3           2.9940    -0.0550    -1.8870 h1         1 GB6       0.058700
     35 HO3          4.9670    -1.3720    -1.0510 ho         1 GB6       0.478000
     36 H4           3.2790     2.0440    -0.7680 h1         1 GB6       0.054700
     37 HO4          5.0000     1.0410     0.6600 ho         1 GB6       0.470000
@<TRIPOS>BOND
     1     1     2 ar  
     2     1     6 ar  
     3     1    20 1   
     4     2     3 ar  
     5     2    21 1   
     6     3     4 ar  
     7     3    22 1   
     8     4     5 ar  
     9     4    23 1   
    10     5     6 ar  
    11     5    24 1   
    12     6     7 1   
    13     7     8 1   
    14     7    10 1   
    15     7    25 1   
    16     8     9 1   
    17     8    26 1   
    18     8    27 1   
    19     9    28 1   
    20    10    11 1   
    21    10    29 1   
    22    11    12 1   
    23    11    30 1   
    24    11    31 1   
    25    12    13 1   
    26    12    18 1   
    27    12    32 1   
    28    13    14 1   
    29    13    33 1   
    30    14    15 2   
    31    14    16 1   
    32    16    17 1   
    33    16    18 1   
    34    16    34 1   
    35    17    35 1   
    36    18    19 1   
    37    18    36 1   
    38    19    37 1   
@<TRIPOS>SUBSTRUCTURE
     1 GB6         1 TEMP              0 ****  ****    0 ROOT
