@<TRIPOS>MOLECULE
GB7
   40    41     1     0     0
SMALL
abcg2


@<TRIPOS>ATOM
      1 C11         -4.1780     1.0580    -0.6560 ca         1 GB7      -0.090000
      2 C12         -5.3880     0.9210     0.0120 ca         1 GB7      -0.116500
      3 C13         -5.4690     0.1220     1.1450 ca         1 GB7      -0.104000
      4 C14         -4.3320    -0.5320     1.6020 ca         1 GB7      -0.116500
      5 C15         -3.1250    -0.3980     0.9290 ca         1 GB7      -0.090000
      6 C10         -3.0360     0.4000    -0.2100 ca         1 GB7      -0.097300
      7 C8          -1.7420     0.5280    -0.9810 c3         1 GB7       0.232800
      8 C9          -1.6100    -0.6210    -1.9790 c3         1 GB7       0.170600
      9 O9          -1.5120    -1.8450    -1.2980 oh         1 GB7      -0.639000
     10 N7          -0.6230     0.5790    -0.0590 n7         1 GB7      -0.860400
     11 C6           0.6430     0.9680    -0.6390 c3         1 GB7       0.149800
     12 C5           1.7480     0.8570     0.4060 c5         1 GB7       0.102700
     13 N1           2.0610    -0.5230     0.7590 n          1 GB7      -0.382800
     14 C1           1.1990    -1.3330     1.5860 c3         1 GB7       0.098300
     15 C2           3.2080    -0.9540     0.2250 c          1 GB7       0.530000
     16 O2           3.7540    -2.0330     0.3940 o          1 GB7      -0.560000
     17 C3           3.7380     0.1470    -0.6800 c5         1 GB7       0.038300
     18 O3           5.1310     0.2160    -0.7200 oh         1 GB7      -0.655000
     19 C4           3.0980     1.3970    -0.0820 c5         1 GB7       0.162300
     20 O4           3.8230     1.8440     1.0320 oh         1 GB7      -0.655000
     21 H11         -4.1210     1.6930    -1.5330 ha         1 GB7       0.119500
     22 H12         -6.2640     1.4450    -0.3480 ha         1 GB7       0.112500
     23 H13         -6.4090     0.0150     1.6710 ha         1 GB7       0.112000
     24 H14         -4.3860    -1.1540     2.4870 ha         1 GB7       0.112500
     25 H15         -2.2450    -0.9080     1.2960 ha         1 GB7       0.119500
     26 H8          -1.8080     1.4400    -1.5990 h1         1 GB7       0.024700
     27 H9          -2.4900    -0.5810    -2.6340 h1         1 GB7       0.017200
     28 H9A         -0.7390    -0.4480    -2.6260 h1         1 GB7       0.017200
     29 HO9         -1.5830    -2.5510    -1.9470 ho         1 GB7       0.439000
     30 HN7         -0.8450     1.2280     0.6860 hn         1 GB7       0.419000
     31 H6           0.8810     0.3120    -1.4800 h1         1 GB7       0.038200
     32 H6A          0.6320     1.9940    -1.0380 h1         1 GB7       0.038200
     33 H5           1.4350     1.3980     1.3060 h1         1 GB7       0.080700
     34 H1           0.3180    -1.6540     1.0340 h1         1 GB7       0.051700
     35 H1A          1.7510    -2.2020     1.9370 h1         1 GB7       0.051700
     36 H1B          0.8710    -0.7570     2.4510 h1         1 GB7       0.051700
     37 H3           3.3220    -0.0290    -1.6830 h1         1 GB7       0.068700
     38 HO3          5.4860    -0.6470    -0.4730 ho         1 GB7       0.479000
     39 H4           2.9660     2.1920    -0.8250 h1         1 GB7       0.058700
     40 HO4          4.7610     1.8050     0.8100 ho         1 GB7       0.471000
@<TRIPOS>BOND
     1     1     2 ar  
     2     1     6 ar  
     3     1    21 1   
     4     2     3 ar  
     5     2    22 1   
     6     3     4 ar  
     7     3    23 1   
     8     4     5 ar  
     9     4    24 1   
    10     5     6 ar  
    11     5    25 1   
    12     6     7 1   
    13     7     8 1   
    14     7    10 1   
    15     7    26 1   
    16     8     9 1   
    17     8    27 1   
    18     8    28 1   
    19     9    29 1   
    20    10    11 1   
    21    10    30 1   
    22    11    12 1   
    23    11    31 1   
    24    11    32 1   
    25    12    13 1   
    26    12    19 1   
    27    12    33 1   
    28    13    14 1   
    29    13    15 1   
    30    14    34 1   
    31    14    35 1   
    32    14    36 1   
    33    15    16 2   
    34    15    17 1   
    35    17    18 1   
    36    17    19 1   
    37    17    37 1   
    38    18    38 1   
    39    19    20 1   
    40    19    39 1   
    41    20    40 1   
@<TRIPOS>SUBSTRUCTURE
     1 GB7         1 TEMP              0 ****  ****    0 ROOT
