@<TRIPOS>MOLECULE
GB7
   40    41     1     0     0
SMALL
No Charge or Current Charge


@<TRIPOS>ATOM
      1 C11         -4.2080     1.2210    -0.4890 ca         1 GB7      -0.090000
      2 C12         -5.4140     1.0900     0.2220 ca         1 GB7      -0.116500
      3 C13         -5.5550     0.0840     1.1910 ca         1 GB7      -0.104000
      4 C14         -4.4880    -0.7920     1.4500 ca         1 GB7      -0.116500
      5 C15         -3.2820    -0.6610     0.7400 ca         1 GB7      -0.090000
      6 C10         -3.1300     0.3470    -0.2370 ca         1 GB7      -0.097300
      7 C8          -1.8210     0.5020    -1.0190 c3         1 GB7       0.232800
      8 C9          -1.6690    -0.5820    -2.1460 c3         1 GB7       0.170600
      9 O9          -1.5000    -1.9200    -1.6350 oh         1 GB7      -0.639000
     10 N7          -0.6750     0.5520    -0.0750 n7         1 GB7      -0.860400
     11 C6           0.6360     0.9470    -0.6430 c3         1 GB7       0.149800
     12 C5           1.7790     0.9490     0.4140 c5         1 GB7       0.102700
     13 N1           2.0930    -0.4110     0.9190 n          1 GB7      -0.382800
     14 C1           1.3120    -1.1200     1.9500 c3         1 GB7       0.098300
     15 C2           3.2440    -0.9840     0.3790 c          1 GB7       0.530000
     16 O2           3.7150    -2.0700     0.6980 o          1 GB7      -0.560000
     17 C3           3.7770     0.0420    -0.6540 c5         1 GB7       0.038300
     18 O3           5.2270     0.0880    -0.7100 oh         1 GB7      -0.655000
     19 C4           3.1640     1.3950    -0.1800 c5         1 GB7       0.162300
     20 O4           4.0100     1.9770     0.8160 oh         1 GB7      -0.655000
     21 H11         -4.1130     2.0050    -1.2380 ha         1 GB7       0.119500
     22 H12         -6.2400     1.7690     0.0200 ha         1 GB7       0.112500
     23 H13         -6.4890    -0.0170     1.7410 ha         1 GB7       0.112000
     24 H14         -4.5940    -1.5720     2.2010 ha         1 GB7       0.112500
     25 H15         -2.4610    -1.3450     0.9480 ha         1 GB7       0.119500
     26 H8          -1.8730     1.4720    -1.5330 h1         1 GB7       0.024700
     27 H9          -2.5610    -0.5400    -2.7850 h1         1 GB7       0.017200
     28 H9A         -0.8140    -0.3170    -2.7800 h1         1 GB7       0.017200
     29 HO9         -1.3840    -2.5080    -2.4120 ho         1 GB7       0.439000
     30 HN7         -0.9210     1.2210     0.6630 hn         1 GB7       0.419000
     31 H6           0.9230     0.2640    -1.4540 h1         1 GB7       0.038200
     32 H6A          0.5650     1.9550    -1.0750 h1         1 GB7       0.038200
     33 H5           1.4840     1.6180     1.2340 h1         1 GB7       0.080700
     34 H1           0.8030    -1.9820     1.4990 h1         1 GB7       0.051700
     35 H1A          1.9770    -1.4700     2.7510 h1         1 GB7       0.051700
     36 H1B          0.5600    -0.4470     2.3820 h1         1 GB7       0.051700
     37 H3           3.3580    -0.2400    -1.6300 h1         1 GB7       0.068700
     38 HO3          5.5440    -0.8400    -0.8260 ho         1 GB7       0.479000
     39 H4           3.0380     2.0940    -1.0190 h1         1 GB7       0.058700
     40 HO4          4.9020     1.6130     0.6000 ho         1 GB7       0.471000
@<TRIPOS>BOND
     1     1     2 ar  
     2     1     6 ar  
     3     1    21 1   
     4     2     3 ar  
     5     2    22 1   
     6     3     4 ar  
     7     3    23 1   
     8     4     5 ar  
     9     4    24 1   
    10     5     6 ar  
    11     5    25 1   
    12     6     7 1   
    13     7     8 1   
    14     7    10 1   
    15     7    26 1   
    16     8     9 1   
    17     8    27 1   
    18     8    28 1   
    19     9    29 1   
    20    10    11 1   
    21    10    30 1   
    22    11    12 1   
    23    11    31 1   
    24    11    32 1   
    25    12    13 1   
    26    12    19 1   
    27    12    33 1   
    28    13    14 1   
    29    13    15 1   
    30    14    34 1   
    31    14    35 1   
    32    14    36 1   
    33    15    16 2   
    34    15    17 1   
    35    17    18 1   
    36    17    19 1   
    37    17    37 1   
    38    18    38 1   
    39    19    20 1   
    40    19    39 1   
    41    20    40 1   
@<TRIPOS>SUBSTRUCTURE
     1 GB7         1 TEMP              0 ****  ****    0 ROOT
