@<TRIPOS>MOLECULE
GB8
   52    56     1     0     0
SMALL
abcg2


@<TRIPOS>ATOM
      1 C            1.3680     1.2220     0.3460 c5         1 GB8       0.316300
      2 N            1.5110    -0.2130     0.2420 na         1 GB8      -0.323300
      3 O            2.0040     1.8300    -0.7460 os         1 GB8      -0.422000
      4 C1           1.9590     1.8330     1.6250 c5         1 GB8       0.098300
      5 N1           0.9120    -2.3550    -0.0680 nc         1 GB8      -0.622100
      6 C2           3.2520     2.4920     1.1210 c5         1 GB8       0.089300
      7 N2           3.9280    -0.4850     0.1020 nb         1 GB8      -0.231000
      8 O2           3.5980     3.6450     1.8410 oh         1 GB8      -0.712000
      9 C3           2.8840     2.8580    -0.3150 c5         1 GB8       0.174300
     10 N3           4.5670    -2.7450    -0.3030 nb         1 GB8      -0.286000
     11 O3           1.0560     2.8030     2.0880 oh         1 GB8      -0.718000
     12 C4           4.0820     2.9360    -1.2270 c3         1 GB8       0.162600
     13 C5           0.4890    -1.1400     0.1470 cd         1 GB8       0.637700
     14 N5          -0.8160    -0.7770     0.2280 nu         1 GB8      -0.863400
     15 C6           2.2790    -2.2350    -0.1240 ca         1 GB8      -0.065600
     16 N6          -6.9380     0.5820     0.5620 nb         1 GB8      -0.661000
     17 C7           2.6770    -0.9250     0.0740 ca         1 GB8       0.138500
     18 C8           4.8060    -1.4560    -0.0960 ca         1 GB8       0.166900
     19 C9           3.2990    -3.1730    -0.3210 ca         1 GB8       0.426900
     20 C10         -1.8200    -1.8290     0.1730 c3         1 GB8       0.263100
     21 C11         -3.1890    -1.2150     0.2400 ca         1 GB8      -0.110300
     22 C12         -3.8640    -0.8640    -0.9010 ca         1 GB8      -0.058000
     23 C13         -5.1360    -0.2580    -0.8330 ca         1 GB8      -0.088000
     24 C14         -5.7210     0.0010     0.4310 ca         1 GB8       0.274000
     25 C15         -5.0110    -0.3650     1.5960 ca         1 GB8      -0.081000
     26 C16         -3.7810    -0.9560     1.4980 ca         1 GB8      -0.101000
     27 C17         -7.5850     0.9100    -0.5250 ca         1 GB8       0.357900
     28 C18         -7.0940     0.6960    -1.8310 ca         1 GB8      -0.168000
     29 C19         -5.8690     0.1120    -1.9820 ca         1 GB8      -0.055000
     30 H            0.2940     1.4300     0.3170 h2         1 GB8       0.094700
     31 H1           2.1440     1.0650     2.3850 h1         1 GB8       0.069700
     32 HO1          4.4490     3.4420    -3.0590 ho         1 GB8       0.503000
     33 H2           4.0570     1.7520     1.1190 h1         1 GB8       0.087700
     34 HO2          4.1520     3.3890     2.5860 ho         1 GB8       0.515000
     35 H3           2.3590     3.8250    -0.3170 h1         1 GB8       0.078700
     36 HO3          1.5780     3.5150     2.4810 ho         1 GB8       0.529000
     37 H4           4.5660     1.9510    -1.2590 h1         1 GB8       0.035200
     38 H4A          4.7950     3.6360    -0.7720 h1         1 GB8       0.035200
     39 HN4          3.8020    -5.0820    -0.7980 hn         1 GB8       0.497000
     40 HN4A         2.1170    -4.7920    -0.6860 hn         1 GB8       0.497000
     41 HN5         -1.0320    -0.0340     0.8760 hn         1 GB8       0.480000
     42 H8           5.8510    -1.1650    -0.0890 h5         1 GB8       0.042100
     43 H10         -1.6960    -2.3780    -0.7610 h1         1 GB8       0.060700
     44 H10A        -1.6890    -2.5500     0.9880 h1         1 GB8       0.060700
     45 H12         -3.4270    -1.0550    -1.8750 ha         1 GB8       0.123000
     46 H15         -5.4600    -0.1720     2.5610 ha         1 GB8       0.134000
     47 H16         -3.2500    -1.2370     2.4000 ha         1 GB8       0.115000
     48 H17         -8.5560     1.3750    -0.3920 h4         1 GB8       0.020100
     49 H18         -7.6890     0.9930    -2.6840 ha         1 GB8       0.126000
     50 H19         -5.4540    -0.0710    -2.9650 ha         1 GB8       0.121000
     51 O1           3.6690     3.3660    -2.5030 oh         1 GB8      -0.707000
     52 N4           3.0540    -4.4830    -0.4940 nv         1 GB8      -1.055900
@<TRIPOS>BOND
     1     1     2 1   
     2     1     3 1   
     3     1     4 1   
     4     1    30 1   
     5     2    13 1   
     6     2    17 1   
     7     3     9 1   
     8     4     6 1   
     9     4    11 1   
    10     4    31 1   
    11     5    13 2   
    12     5    15 1   
    13     6     8 1   
    14     6     9 1   
    15     6    33 1   
    16     7    17 ar  
    17     7    18 ar  
    18     8    34 1   
    19     9    12 1   
    20     9    35 1   
    21    10    18 ar  
    22    10    19 ar  
    23    11    36 1   
    24    12    37 1   
    25    12    38 1   
    26    12    51 1   
    27    13    14 1   
    28    14    20 1   
    29    14    41 1   
    30    15    17 ar  
    31    15    19 ar  
    32    16    24 ar  
    33    16    27 ar  
    34    18    42 1   
    35    19    52 1   
    36    20    21 1   
    37    20    43 1   
    38    20    44 1   
    39    21    22 ar  
    40    21    26 ar  
    41    22    23 ar  
    42    22    45 1   
    43    23    24 ar  
    44    23    29 ar  
    45    24    25 ar  
    46    25    26 ar  
    47    25    46 1   
    48    26    47 1   
    49    27    28 ar  
    50    27    48 1   
    51    28    29 ar  
    52    28    49 1   
    53    29    50 1   
    54    32    51 1   
    55    39    52 1   
    56    40    52 1   
@<TRIPOS>SUBSTRUCTURE
     1 GB8         1 TEMP              0 ****  ****    0 ROOT
