@<TRIPOS>MOLECULE
GB8
   52    56     1     0     0
SMALL
No Charge or Current Charge


@<TRIPOS>ATOM
      1 C            1.3490     1.1490    -0.1830 c5         1 GB8       0.316300
      2 N            1.5460    -0.3010    -0.1770 na         1 GB8      -0.323300
      3 O            2.3570     1.7730    -1.0170 os         1 GB8      -0.422000
      4 C1           1.4460     1.8330     1.2300 c5         1 GB8       0.098300
      5 N1           0.9880    -2.5490    -0.1020 nc         1 GB8      -0.622100
      6 C2           2.8820     2.4240     1.1840 c5         1 GB8       0.089300
      7 N2           4.0050    -0.6380    -0.2600 nb         1 GB8      -0.231000
      8 O2           3.0210     3.4920     2.1450 oh         1 GB8      -0.712000
      9 C3           2.9200     2.8960    -0.3020 c5         1 GB8       0.174300
     10 N3           4.6900    -2.9590    -0.2570 nb         1 GB8      -0.286000
     11 O3           0.5100     2.9050     1.4180 oh         1 GB8      -0.718000
     12 C4           4.3370     3.2360    -0.8460 c3         1 GB8       0.162600
     13 C5           0.5590    -1.2870    -0.0960 cd         1 GB8       0.637700
     14 N5          -0.7630    -1.0060     0.0110 nu         1 GB8      -0.863400
     15 C6           2.3650    -2.3600    -0.1690 ca         1 GB8      -0.065600
     16 N6          -6.8180     0.7650     0.7890 nb         1 GB8      -0.661000
     17 C7           2.7140    -1.0290    -0.2080 ca         1 GB8       0.138500
     18 C8           4.9290    -1.6270    -0.2840 ca         1 GB8       0.166900
     19 C9           3.3990    -3.3220    -0.1960 ca         1 GB8       0.426900
     20 C10         -1.8430    -1.9830     0.1610 c3         1 GB8       0.263100
     21 C11         -3.1690    -1.2550     0.3200 ca         1 GB8      -0.110300
     22 C12         -3.9320    -0.9130    -0.8130 ca         1 GB8      -0.058000
     23 C13         -5.1570    -0.2360    -0.6670 ca         1 GB8      -0.088000
     24 C14         -5.6410     0.1130     0.6200 ca         1 GB8       0.274000
     25 C15         -4.8670    -0.2330     1.7430 ca         1 GB8      -0.081000
     26 C16         -3.6430    -0.9090     1.5990 ca         1 GB8      -0.101000
     27 C17         -7.5430     1.0880    -0.3070 ca         1 GB8       0.357900
     28 C18         -7.1310     0.7770    -1.6130 ca         1 GB8      -0.168000
     29 C19         -5.9160     0.1030    -1.8020 ca         1 GB8      -0.055000
     30 H            0.3590     1.3280    -0.6180 h2         1 GB8       0.094700
     31 H1           1.3480     1.0940     2.0380 h1         1 GB8       0.069700
     32 HO1          5.2010     3.9580    -2.4640 ho         1 GB8       0.503000
     33 H2           3.6270     1.6320     1.3580 h1         1 GB8       0.087700
     34 HO2          3.9800     3.5740     2.3700 ho         1 GB8       0.515000
     35 H3           2.2700     3.7700    -0.4470 h1         1 GB8       0.078700
     36 HO3          1.0550     3.5850     1.8940 ho         1 GB8       0.529000
     37 H4           4.9380     2.3160    -0.8680 h1         1 GB8       0.035200
     38 H4A          4.8210     3.9300    -0.1470 h1         1 GB8       0.035200
     39 HN4          3.8930    -5.2920    -0.4700 hn         1 GB8       0.497000
     40 HN4A         2.1980    -4.9630    -0.3220 hn         1 GB8       0.497000
     41 HN5         -0.9920    -0.0320     0.1690 hn         1 GB8       0.480000
     42 H8           5.9720    -1.3190    -0.3300 h5         1 GB8       0.042100
     43 H10         -1.8870    -2.6400    -0.7190 h1         1 GB8       0.060700
     44 H10A        -1.6650    -2.6180     1.0400 h1         1 GB8       0.060700
     45 H12         -3.5690    -1.1730    -1.8050 ha         1 GB8       0.123000
     46 H15         -5.2220     0.0280     2.7360 ha         1 GB8       0.134000
     47 H16         -3.0620    -1.1630     2.4830 ha         1 GB8       0.115000
     48 H17         -8.4820     1.6110    -0.1320 h4         1 GB8       0.020100
     49 H18         -7.7500     1.0590    -2.4600 ha         1 GB8       0.126000
     50 H19         -5.5740    -0.1500    -2.8040 ha         1 GB8       0.121000
     51 O1           4.2720     3.8310    -2.1580 oh         1 GB8      -0.707000
     52 N4           3.1570    -4.6630    -0.1630 nv         1 GB8      -1.055900
@<TRIPOS>BOND
     1     1     2 1   
     2     1     3 1   
     3     1     4 1   
     4     1    30 1   
     5     2    13 1   
     6     2    17 1   
     7     3     9 1   
     8     4     6 1   
     9     4    11 1   
    10     4    31 1   
    11     5    13 2   
    12     5    15 1   
    13     6     8 1   
    14     6     9 1   
    15     6    33 1   
    16     7    17 ar  
    17     7    18 ar  
    18     8    34 1   
    19     9    12 1   
    20     9    35 1   
    21    10    18 ar  
    22    10    19 ar  
    23    11    36 1   
    24    12    37 1   
    25    12    38 1   
    26    12    51 1   
    27    13    14 1   
    28    14    20 1   
    29    14    41 1   
    30    15    17 ar  
    31    15    19 ar  
    32    16    24 ar  
    33    16    27 ar  
    34    18    42 1   
    35    19    52 1   
    36    20    21 1   
    37    20    43 1   
    38    20    44 1   
    39    21    22 ar  
    40    21    26 ar  
    41    22    23 ar  
    42    22    45 1   
    43    23    24 ar  
    44    23    29 ar  
    45    24    25 ar  
    46    25    26 ar  
    47    25    46 1   
    48    26    47 1   
    49    27    28 ar  
    50    27    48 1   
    51    28    29 ar  
    52    28    49 1   
    53    29    50 1   
    54    32    51 1   
    55    39    52 1   
    56    40    52 1   
@<TRIPOS>SUBSTRUCTURE
     1 GB8         1 TEMP              0 ****  ****    0 ROOT
