@<TRIPOS>MOLECULE
GB9
   25    26     1     0     0
SMALL
No Charge or Current Charge


@<TRIPOS>ATOM
      1 C1          86.6140   130.1840   103.6750 ca         1 GB9      -0.176600
      2 C10         84.9320   129.1390   101.6550 ca         1 GB9       0.200000
      3 C11         91.4640   133.7160   105.1290 ca         1 GB9      -0.120000
      4 C12         91.5110   133.5900   106.5260 ca         1 GB9       0.417000
      5 C2          89.5410   132.2480   105.1320 ca         1 GB9      -0.072000
      6 C3          87.4950   130.7260   104.7870 c          1 GB9       0.625700
      7 C4          85.5380   129.3240   104.0010 ca         1 GB9      -0.042500
      8 C5          86.8310   130.5120   102.3110 ca         1 GB9      -0.042500
      9 C6          90.4630   133.0350   104.4160 ca         1 GB9      -0.131000
     10 C7          84.7040   128.8050   102.9960 ca         1 GB9      -0.162000
     11 C8          85.9910   129.9890   101.3110 ca         1 GB9      -0.162000
     12 C9          89.6710   132.1840   106.5450 ca         1 GB9       0.337900
     13 F1          84.1290   128.6390   100.6910 f          1 GB9      -0.169000
     14 N1          88.5320   131.5650   104.3920 ns         1 GB9      -0.139000
     15 N2          90.6380   132.8410   107.2330 nb         1 GB9      -0.640000
     16 O1          87.2900   130.4310   105.9590 o          1 GB9      -0.569100
     17 H8          92.1940   134.3330   104.6130 ha         1 GB9       0.140000
     18 H2          85.3430   129.0520   105.0380 ha         1 GB9       0.129000
     19 H3          87.6420   131.1680   102.0050 ha         1 GB9       0.129000
     20 H4          90.4070   133.1190   103.3320 ha         1 GB9       0.119000
     21 H5          83.8800   128.1450   103.2560 ha         1 GB9       0.139500
     22 H6          86.1610   130.2420   100.2680 ha         1 GB9       0.139500
     23 H7          88.9940   131.5960   107.1600 h4         1 GB9       0.060100
     24 H1          88.5830   131.7210   103.3950 hn         1 GB9       0.155000
     25 Cl1         92.7480   134.4250   107.4540 cl         1 GB9      -0.167000
@<TRIPOS>BOND
     1     1     6 1   
     2     1     7 ar  
     3     1     8 ar  
     4     2    10 ar  
     5     2    11 ar  
     6     2    13 1   
     7     3     4 ar  
     8     3     9 ar  
     9     3    17 1   
    10     4    15 ar  
    11     4    25 1   
    12     5     9 ar  
    13     5    12 ar  
    14     5    14 1   
    15     6    14 1   
    16     6    16 2   
    17     7    10 ar  
    18     7    18 1   
    19     8    11 ar  
    20     8    19 1   
    21     9    20 1   
    22    10    21 1   
    23    11    22 1   
    24    12    15 ar  
    25    12    23 1   
    26    14    24 1   
@<TRIPOS>SUBSTRUCTURE
     1 GB9         1 TEMP              0 ****  ****    0 ROOT
