@<TRIPOS>MOLECULE
GB9
   25    26     1     0     0
SMALL
bcc


@<TRIPOS>ATOM
      1 C1          86.7100   130.1720   103.6380 ca         1 GB9      -0.176600
      2 C10         84.9730   129.1750   101.7380 ca         1 GB9       0.164900
      3 C11         91.1820   133.9390   105.2190 ca         1 GB9      -0.203300
      4 C12         91.4480   133.4860   106.5020 ca         1 GB9       0.482300
      5 C2          89.5040   132.2220   105.0960 ca         1 GB9      -0.044700
      6 C3          87.6090   130.6720   104.7170 c          1 GB9       0.692700
      7 C4          85.4670   129.6630   104.0130 ca         1 GB9      -0.060500
      8 C5          87.0700   130.1530   102.2910 ca         1 GB9      -0.060500
      9 C6          90.1920   133.2890   104.5150 ca         1 GB9      -0.149000
     10 C7          84.5860   129.1700   103.0660 ca         1 GB9      -0.180000
     11 C8          86.2040   129.6530   101.3320 ca         1 GB9      -0.180000
     12 C9          89.8640   131.8570   106.3940 ca         1 GB9       0.403200
     13 F1          84.1280   128.6980   100.8180 f          1 GB9      -0.133900
     14 N1          88.5260   131.5970   104.3260 ns         1 GB9      -0.465100
     15 N2          90.8200   132.4890   107.0680 nb         1 GB9      -0.640000
     16 O1          87.5020   130.2780   105.8640 o          1 GB9      -0.569100
     17 H8          91.7250   134.7660   104.7840 ha         1 GB9       0.158000
     18 H2          85.1760   129.6590   105.0540 ha         1 GB9       0.147000
     19 H3          88.0400   130.5030   101.9620 ha         1 GB9       0.147000
     20 H4          89.9520   133.6120   103.5090 ha         1 GB9       0.137000
     21 H5          83.6170   128.7870   103.3550 ha         1 GB9       0.157500
     22 H6          86.4870   129.6300   100.2880 ha         1 GB9       0.157500
     23 H7          89.3820   131.0420   106.9100 h4         1 GB9       0.060100
     24 H1          88.4480   131.9510   103.3850 hn         1 GB9       0.321500
     25 CL1         92.6850   134.2660   107.4370 cl         1 GB9      -0.167000
@<TRIPOS>BOND
     1     1     6 1   
     2     1     7 ar  
     3     1     8 ar  
     4     2    10 ar  
     5     2    11 ar  
     6     2    13 1   
     7     3     4 ar  
     8     3     9 ar  
     9     3    17 1   
    10     4    15 ar  
    11     4    25 1   
    12     5     9 ar  
    13     5    12 ar  
    14     5    14 1   
    15     6    14 1   
    16     6    16 2   
    17     7    10 ar  
    18     7    18 1   
    19     8    11 ar  
    20     8    19 1   
    21     9    20 1   
    22    10    21 1   
    23    11    22 1   
    24    12    15 ar  
    25    12    23 1   
    26    14    24 1   
@<TRIPOS>SUBSTRUCTURE
     1 GB9         1 TEMP              0 ****  ****    0 ROOT
