@<TRIPOS>MOLECULE
GBA
   32    34     1     0     0
SMALL
No Charge or Current Charge


@<TRIPOS>ATOM
      1 C4           1.8510    -0.7670    -0.2770 ca         1 GBA       0.152500
      2 C5           2.7250     0.2730    -0.0830 ca         1 GBA      -0.105600
      3 C6           4.1030     0.0210    -0.2350 ca         1 GBA       0.456900
      4 C8           0.7720     1.1090     0.2450 cc         1 GBA       0.364800
      5 N1           4.5550    -1.1980    -0.5630 nb         1 GBA      -0.304000
      6 N3           2.2720    -2.0060    -0.6030 nb         1 GBA      -0.212000
      7 O2          -1.0230    -1.7940     2.3210 oh         1 GBA      -0.669000
      8 C2          -1.5350    -1.0120     1.2340 c5         1 GBA       0.133300
      9 C3          -2.8010    -1.6800     0.6290 c5         1 GBA       0.097300
     10 O3          -2.6000    -3.1000     0.4820 oh         1 GBA      -0.686000
     11 C7          -2.8920    -0.9260    -0.7490 c5         1 GBA       0.133300
     12 C9          -3.7430     0.3770    -0.6820 c3         1 GBA       0.153600
     13 O5          -3.9400     0.9420    -1.9900 oh         1 GBA      -0.693000
     14 O4          -1.5180    -0.5960    -1.1130 os         1 GBA      -0.424000
     15 C1          -0.6430    -1.0240    -0.0490 c5         1 GBA       0.313300
     16 N9           0.6030    -0.2500    -0.0680 na         1 GBA      -0.270300
     17 Br8         -0.6320     2.3400     0.5450 br         1 GBA       0.016700
     18 N7           2.0690     1.4630     0.2390 nd         1 GBA      -0.521100
     19 C10          3.6120    -2.1570    -0.7310 ca         1 GBA       0.189900
     20 N6           5.0470     0.9860    -0.0690 nv         1 GBA      -1.062900
     21 H1          -1.3460    -2.7090     2.1280 ho         1 GBA       0.511000
     22 H2          -1.7540     0.0090     1.5690 h1         1 GBA       0.050700
     23 H3          -3.6870    -1.4860     1.2510 h1         1 GBA       0.050700
     24 H4          -3.4470    -3.4930     0.1620 ho         1 GBA       0.507000
     25 H5          -3.3220    -1.5760    -1.5230 h1         1 GBA       0.082700
     26 H6          -4.7160     0.1320    -0.2370 h1         1 GBA       0.020200
     27 H7          -3.2520     1.1010    -0.0200 h1         1 GBA       0.020200
     28 H8          -4.4500     1.7770    -1.8710 ho         1 GBA       0.504000
     29 H9          -0.3460    -2.0630    -0.2450 h2         1 GBA       0.126700
     30 H10          3.9670    -3.1510    -0.9960 h5         1 GBA       0.048100
     31 H11          4.7170     1.9480    -0.0450 hn         1 GBA       0.508000
     32 H12          5.9670     0.8310    -0.4730 hn         1 GBA       0.508000
@<TRIPOS>BOND
     1     1     2 ar  
     2     1     6 ar  
     3     1    16 1   
     4     2     3 ar  
     5     2    18 1   
     6     3     5 ar  
     7     3    20 1   
     8     4    16 1   
     9     4    17 1   
    10     4    18 2   
    11     5    19 ar  
    12     6    19 ar  
    13     7     8 1   
    14     7    21 1   
    15     8     9 1   
    16     8    15 1   
    17     8    22 1   
    18     9    10 1   
    19     9    11 1   
    20     9    23 1   
    21    10    24 1   
    22    11    12 1   
    23    11    14 1   
    24    11    25 1   
    25    12    13 1   
    26    12    26 1   
    27    12    27 1   
    28    13    28 1   
    29    14    15 1   
    30    15    16 1   
    31    15    29 1   
    32    19    30 1   
    33    20    31 1   
    34    20    32 1   
@<TRIPOS>SUBSTRUCTURE
     1 GBA         1 TEMP              0 ****  ****    0 ROOT
