@<TRIPOS>MOLECULE
GBA
   32    34     1     0     0
SMALL
abcg2


@<TRIPOS>ATOM
      1 C4           1.8010    -0.7510    -0.2930 ca         1 GBA       0.152500
      2 C5           2.6440     0.3370    -0.1680 ca         1 GBA      -0.105600
      3 C6           4.0260     0.0710    -0.2000 ca         1 GBA       0.456900
      4 C8           0.6900     1.1110    -0.0690 cc         1 GBA       0.364800
      5 N1           4.4090    -1.2010    -0.3530 nb         1 GBA      -0.304000
      6 N3           2.1670    -2.0180    -0.4490 nb         1 GBA      -0.212000
      7 O2          -0.6960    -2.0670     1.8900 oh         1 GBA      -0.669000
      8 C2          -1.4070    -1.2300     1.0370 c5         1 GBA       0.133300
      9 C3          -2.7480    -1.7510     0.5130 c5         1 GBA       0.097300
     10 O3          -2.6000    -3.1200     0.2440 oh         1 GBA      -0.686000
     11 C7          -2.9100    -0.9060    -0.7580 c5         1 GBA       0.133300
     12 C9          -3.7470     0.3300    -0.4980 c3         1 GBA       0.153600
     13 O5          -3.7500     1.1360    -1.6470 oh         1 GBA      -0.693000
     14 O4          -1.5840    -0.5600    -1.1840 os         1 GBA      -0.424000
     15 C1          -0.6550    -1.0750    -0.2810 c5         1 GBA       0.313300
     16 N9           0.5270    -0.2430    -0.2290 na         1 GBA      -0.270300
     17 BR8         -0.7150     2.3090     0.0490 br         1 GBA       0.016700
     18 N7           1.9240     1.4950    -0.0330 nd         1 GBA      -0.521100
     19 C10          3.4830    -2.1480    -0.4690 ca         1 GBA       0.189900
     20 N6           4.9470     1.0250    -0.0820 nv         1 GBA      -1.062900
     21 H1          -1.1110    -2.0490     2.7580 ho         1 GBA       0.511000
     22 H2          -1.5790    -0.2410     1.4830 h1         1 GBA       0.050700
     23 H3          -3.5650    -1.5670     1.2220 h1         1 GBA       0.050700
     24 H4          -3.4250    -3.4490    -0.1270 ho         1 GBA       0.507000
     25 H5          -3.3810    -1.4920    -1.5550 h1         1 GBA       0.082700
     26 H6          -4.7560    -0.0170    -0.2370 h1         1 GBA       0.020200
     27 H7          -3.3630     0.8640     0.3790 h1         1 GBA       0.020200
     28 H8          -4.2060     1.9550    -1.4350 ho         1 GBA       0.504000
     29 H9          -0.2820    -2.0570    -0.5950 h2         1 GBA       0.126700
     30 H10          3.8600    -3.1570    -0.5950 h5         1 GBA       0.048100
     31 H11          4.6890     1.9930    -0.0030 hn         1 GBA       0.508000
     32 H12          5.9250     0.7940    -0.1290 hn         1 GBA       0.508000
@<TRIPOS>BOND
     1     1     2 ar  
     2     1     6 ar  
     3     1    16 1   
     4     2     3 ar  
     5     2    18 1   
     6     3     5 ar  
     7     3    20 1   
     8     4    16 1   
     9     4    17 1   
    10     4    18 2   
    11     5    19 ar  
    12     6    19 ar  
    13     7     8 1   
    14     7    21 1   
    15     8     9 1   
    16     8    15 1   
    17     8    22 1   
    18     9    10 1   
    19     9    11 1   
    20     9    23 1   
    21    10    24 1   
    22    11    12 1   
    23    11    14 1   
    24    11    25 1   
    25    12    13 1   
    26    12    26 1   
    27    12    27 1   
    28    13    28 1   
    29    14    15 1   
    30    15    16 1   
    31    15    29 1   
    32    19    30 1   
    33    20    31 1   
    34    20    32 1   
@<TRIPOS>SUBSTRUCTURE
     1 GBA         1 TEMP              0 ****  ****    0 ROOT
