@<TRIPOS>MOLECULE
GBC
   20    20     1     0     0
SMALL
abcg2


@<TRIPOS>ATOM
      1 C1          -0.0910    -0.0630     0.5640 ce         1 GBC      -0.154400
      2 C2           0.8330    -0.2630    -0.3770 c2         1 GBC      -0.260200
      3 C3           0.5580    -0.3550    -1.8510 c6         1 GBC       0.198700
      4 C4          -0.8110     0.2250    -2.1780 c6         1 GBC      -0.068400
      5 C5          -1.8560    -0.3250    -1.2180 c6         1 GBC      -0.074400
      6 C6          -1.5470     0.0850     0.2190 c6         1 GBC      -0.031200
      7 C7           0.3130     0.0570     2.0270 c          1 GBC       0.708200
      8 N3           1.6000     0.3610    -2.5830 n8         1 GBC      -0.987200
      9 O1           1.5130    -0.1210     2.3200 o          1 GBC      -0.729500
     10 O2          -0.6050     0.3360     2.8260 o          1 GBC      -0.729500
     11 H2           1.8670    -0.3810    -0.0690 ha         1 GBC       0.189000
     12 H3           0.5370    -1.4270    -2.1180 h1         1 GBC      -0.002300
     13 H41         -0.7610     1.3150    -2.0870 hc         1 GBC       0.029200
     14 H42         -1.0750     0.0010    -3.2160 hc         1 GBC       0.029200
     15 H51         -2.8530     0.0190    -1.4990 hc         1 GBC       0.018200
     16 H52         -1.8730    -1.4170    -1.2940 hc         1 GBC       0.018200
     17 H61         -1.8530     1.1240     0.3820 hc         1 GBC       0.050200
     18 H62         -2.1520    -0.5020     0.9130 hc         1 GBC       0.050200
     19 HN31         2.4990    -0.0620    -2.3860 hn         1 GBC       0.373500
     20 HN32         1.4550     0.2240    -3.5770 hn         1 GBC       0.373500
@<TRIPOS>BOND
     1     1     2 2   
     2     1     6 1   
     3     1     7 1   
     4     2     3 1   
     5     2    11 1   
     6     3     4 1   
     7     3     8 1   
     8     3    12 1   
     9     4     5 1   
    10     4    13 1   
    11     4    14 1   
    12     5     6 1   
    13     5    15 1   
    14     5    16 1   
    15     6    17 1   
    16     6    18 1   
    17     7     9 1   
    18     7    10 1   
    19     8    19 1   
    20     8    20 1   
@<TRIPOS>SUBSTRUCTURE
     1 GBC         1 TEMP              0 ****  ****    0 ROOT
