@<TRIPOS>MOLECULE
GBC
   20    20     1     0     0
SMALL
No Charge or Current Charge


@<TRIPOS>ATOM
      1 C1          -0.0630    -0.0440     0.6080 ce         1 GBC      -0.154400
      2 C2           0.8820    -0.2270    -0.3600 c2         1 GBC      -0.260200
      3 C3           0.5810    -0.3250    -1.8440 c6         1 GBC       0.198700
      4 C4          -0.8200     0.2270    -2.2000 c6         1 GBC      -0.068400
      5 C5          -1.8710    -0.3300    -1.2170 c6         1 GBC      -0.074400
      6 C6          -1.5530     0.1230     0.2280 c6         1 GBC      -0.031200
      7 C7           0.2850     0.0160     2.0860 c          1 GBC       0.708200
      8 N3           1.6210     0.3580    -2.6180 n8         1 GBC      -0.987200
      9 O1           1.4530    -0.1260     2.4200 o          1 GBC      -0.729500
     10 O2          -0.6080     0.2120     2.8980 o          1 GBC      -0.729500
     11 H2           1.9310    -0.3430    -0.0880 ha         1 GBC       0.189000
     12 H3           0.6210    -1.3850    -2.1340 h1         1 GBC      -0.002300
     13 H41         -0.8240     1.3250    -2.1550 hc         1 GBC       0.029200
     14 H42         -1.0850    -0.0510    -3.2290 hc         1 GBC       0.029200
     15 H51         -2.8760     0.0080    -1.5030 hc         1 GBC       0.018200
     16 H52         -1.8800    -1.4280    -1.2700 hc         1 GBC       0.018200
     17 H61         -1.8300     1.1790     0.3460 hc         1 GBC       0.050200
     18 H62         -2.1910    -0.4420     0.9220 hc         1 GBC       0.050200
     19 HN31         2.5070    -0.1380    -2.4780 hn         1 GBC       0.373500
     20 HN32         1.4200     0.2220    -3.6150 hn         1 GBC       0.373500
@<TRIPOS>BOND
     1     1     2 2   
     2     1     6 1   
     3     1     7 1   
     4     2     3 1   
     5     2    11 1   
     6     3     4 1   
     7     3     8 1   
     8     3    12 1   
     9     4     5 1   
    10     4    13 1   
    11     4    14 1   
    12     5     6 1   
    13     5    15 1   
    14     5    16 1   
    15     6    17 1   
    16     6    18 1   
    17     7     9 1   
    18     7    10 1   
    19     8    19 1   
    20     8    20 1   
@<TRIPOS>SUBSTRUCTURE
     1 GBC         1 TEMP              0 ****  ****    0 ROOT
