@<TRIPOS>MOLECULE
GBD
   10    10     1     0     0
SMALL
No Charge or Current Charge


@<TRIPOS>ATOM
      1 O13          1.1960    -0.0400     2.3330 o          1 GBD      -0.671500
      2 C1           0.1570    -0.1140     1.6880 c          1 GBD       0.646500
      3 O11         -0.9360    -0.2440     2.2300 o          1 GBD      -0.671500
      4 C3           0.2110    -0.0430     0.1910 cc         1 GBD       0.122500
      5 N2           1.3110     0.0960    -0.5380 nd         1 GBD      -0.452100
      6 S1           0.7920     0.1150    -2.1370 ss         1 GBD       0.234200
      7 C4          -0.9840    -0.1270    -0.5740 cc         1 GBD       0.536300
      8 O4          -2.2070    -0.2710    -0.0320 oh         1 GBD      -0.690300
      9 N5          -0.8580    -0.0580    -1.8720 nd         1 GBD      -0.604100
     10 HO4         -2.0100    -0.2940     0.9450 ho         1 GBD       0.550000
@<TRIPOS>BOND
     1     1     2 1   
     2     2     3 1   
     3     2     4 1   
     4     4     5 2   
     5     4     7 1   
     6     5     6 1   
     7     6     9 1   
     8     7     8 1   
     9     7     9 2   
    10     8    10 1   
@<TRIPOS>SUBSTRUCTURE
     1 GBD         1 TEMP              0 ****  ****    0 ROOT
