@<TRIPOS>MOLECULE
GBD
   10    10     1     0     0
SMALL
bcc


@<TRIPOS>ATOM
      1 O13          1.2340    -0.0370     2.3270 o          1 GBD      -0.776800
      2 C1           0.1810    -0.1120     1.7020 c          1 GBD       0.857100
      3 O11         -0.9880    -0.2430     2.1690 o          1 GBD      -0.776800
      4 C3           0.2020    -0.0480     0.1960 cc         1 GBD       0.122500
      5 N2           1.2650     0.0920    -0.5410 nd         1 GBD      -0.452100
      6 S1           0.7920     0.1180    -2.1110 ss         1 GBD       0.234200
      7 C4          -1.0140    -0.1330    -0.5810 cc         1 GBD       0.536300
      8 O4          -2.1970    -0.2710    -0.0260 oh         1 GBD      -0.651300
      9 N5          -0.8260    -0.0560    -1.8670 nd         1 GBD      -0.604100
     10 HO4         -1.9780    -0.2900     0.9680 ho         1 GBD       0.511000
@<TRIPOS>BOND
     1     1     2 1   
     2     2     3 1   
     3     2     4 1   
     4     4     5 2   
     5     4     7 1   
     6     5     6 1   
     7     6     9 1   
     8     7     8 1   
     9     7     9 2   
    10     8    10 1   
@<TRIPOS>SUBSTRUCTURE
     1 GBD         1 TEMP              0 ****  ****    0 ROOT
