@<TRIPOS>MOLECULE
GBE
   56    57     1     0     0
SMALL
abcg2


@<TRIPOS>ATOM
      1 C1          -3.3350    -1.0720    -0.0290 c6         1 GBE       0.367300
      2 O1          -3.3400    -2.4290    -0.2770 os         1 GBE      -0.437000
      3 C2          -3.1350    -0.2820    -1.3190 c6         1 GBE       0.122300
      4 O2          -1.9330    -0.5820    -1.9750 oh         1 GBE      -0.759000
      5 C3          -3.1790     1.1980    -0.9530 c6         1 GBE       0.114300
      6 O3          -3.0750     2.0310    -2.0830 oh         1 GBE      -0.669000
      7 C4          -4.4840     1.5380    -0.2450 c6         1 GBE       0.143300
      8 O4          -4.4890     2.8620     0.2330 oh         1 GBE      -0.723000
      9 C5          -4.6750     0.6020     0.9510 c6         1 GBE       0.181300
     10 O5          -4.5790    -0.7440     0.5310 os         1 GBE      -0.464000
     11 C6          -6.0310     0.7860     1.5980 c3         1 GBE       0.171600
     12 O6          -6.1050    -0.0290     2.7430 oh         1 GBE      -0.711000
     13 OAA          6.8450     3.2270    -0.0050 o          1 GBE      -0.697533
     14 OAB          6.5940     1.2220     1.4070 o          1 GBE      -0.697533
     15 OAG          4.9920     3.0820     1.6120 o          1 GBE      -0.697533
     16 CAH          3.8680     0.6060     0.0060 c3         1 GBE      -0.033400
     17 CAJ         -2.5000    -3.2330     0.5320 c3         1 GBE       0.167600
     18 CAL         -1.2040    -3.5810    -0.1790 c3         1 GBE       0.126800
     19 CAM          1.5170    -1.6480    -1.8800 c6         1 GBE       0.161800
     20 CAN          1.1120    -0.6350     0.2270 c6         1 GBE       0.161800
     21 CAO          0.6580    -2.8310    -1.4840 c6         1 GBE       0.153300
     22 CAP          0.2650    -1.8260     0.6360 c6         1 GBE       0.153300
     23 CAQ          4.8860     1.5900    -0.5460 c3         1 GBE      -0.359400
     24 NAY          2.1340    -1.0350    -0.7200 n3         1 GBE      -0.717600
     25 NAZ         -0.3720    -2.4360    -0.5260 n3         1 GBE      -0.731600
     26 SBA          5.9150     2.3420     0.7260 s6         1 GBE       1.323600
     27 H1          -2.5340    -0.8060     0.6850 h2         1 GBE       0.030700
     28 H2          -3.9790    -0.5070    -1.9890 h1         1 GBE       0.074700
     29 HO2         -1.3880    -1.2050    -1.4390 ho         1 GBE       0.561000
     30 H3          -2.3500     1.3950    -0.2500 h1         1 GBE       0.044700
     31 HO3         -2.2010     1.9050    -2.4660 ho         1 GBE       0.470000
     32 H4          -5.3140     1.3700    -0.9510 h1         1 GBE       0.050700
     33 HO4         -4.2950     3.4470    -0.5060 ho         1 GBE       0.525000
     34 H5          -3.8890     0.8200     1.6920 h1         1 GBE       0.059700
     35 H6          -6.1560     1.8460     1.8470 h1         1 GBE       0.033700
     36 H6A         -6.8100     0.5340     0.8650 h1         1 GBE       0.033700
     37 HO6         -6.9770     0.0840     3.1310 ho         1 GBE       0.498000
     38 HAH          3.2550     1.1100     0.7550 hc         1 GBE       0.054700
     39 HAHA         4.3800    -0.2200     0.5050 hc         1 GBE       0.054700
     40 HAJ         -2.3160    -2.7560     1.5000 h1         1 GBE       0.049700
     41 HAJA        -3.0290    -4.1660     0.7380 h1         1 GBE       0.049700
     42 HAK          2.4310     0.8820    -1.5760 h1         1 GBE       0.025200
     43 HAKA         3.6600    -0.3300    -1.9060 h1         1 GBE       0.025200
     44 HAL         -0.6550    -4.2980     0.4500 h1         1 GBE       0.043700
     45 HALA        -1.4540    -4.1040    -1.1050 h1         1 GBE       0.043700
     46 HAM          2.3000    -1.9990    -2.5560 h1         1 GBE       0.042950
     47 HAMA         0.9070    -0.9240    -2.4470 h1         1 GBE       0.042950
     48 HAN          0.4580     0.1530    -0.1880 h1         1 GBE       0.042950
     49 HANA         1.5740    -0.2260     1.1260 h1         1 GBE       0.042950
     50 HAO          0.1740    -3.2370    -2.3740 h1         1 GBE       0.039200
     51 HAOA         1.2970    -3.6220    -1.0630 h1         1 GBE       0.039200
     52 HAP          0.8910    -2.5600     1.1650 h1         1 GBE       0.039200
     53 HAPA        -0.4940    -1.4840     1.3410 h1         1 GBE       0.039200
     54 HAQ          5.5620     1.0980    -1.2500 h1         1 GBE       0.063700
     55 HAQA         4.3910     2.4050    -1.0790 h1         1 GBE       0.063700
     56 CAK          3.0030     0.0550    -1.1200 c3         1 GBE       0.165800
@<TRIPOS>BOND
     1     1     2 1   
     2     1     3 1   
     3     1    10 1   
     4     1    27 1   
     5     2    17 1   
     6     3     4 1   
     7     3     5 1   
     8     3    28 1   
     9     4    29 1   
    10     5     6 1   
    11     5     7 1   
    12     5    30 1   
    13     6    31 1   
    14     7     8 1   
    15     7     9 1   
    16     7    32 1   
    17     8    33 1   
    18     9    10 1   
    19     9    11 1   
    20     9    34 1   
    21    11    12 1   
    22    11    35 1   
    23    11    36 1   
    24    12    37 1   
    25    13    26 1   
    26    14    26 1   
    27    15    26 1   
    28    16    23 1   
    29    16    38 1   
    30    16    39 1   
    31    16    56 1   
    32    17    18 1   
    33    17    40 1   
    34    17    41 1   
    35    18    25 1   
    36    18    44 1   
    37    18    45 1   
    38    19    21 1   
    39    19    24 1   
    40    19    46 1   
    41    19    47 1   
    42    20    22 1   
    43    20    24 1   
    44    20    48 1   
    45    20    49 1   
    46    21    25 1   
    47    21    50 1   
    48    21    51 1   
    49    22    25 1   
    50    22    52 1   
    51    22    53 1   
    52    23    26 1   
    53    23    54 1   
    54    23    55 1   
    55    24    56 1   
    56    42    56 1   
    57    43    56 1   
@<TRIPOS>SUBSTRUCTURE
     1 GBE         1 TEMP              0 ****  ****    0 ROOT
