@<TRIPOS>MOLECULE
GBE
   56    57     1     0     0
SMALL
No Charge or Current Charge


@<TRIPOS>ATOM
      1 C1          -3.3420    -1.2700    -0.0240 c6         1 GBE       0.367300
      2 O1          -3.5700    -2.6870    -0.1270 os         1 GBE      -0.437000
      3 C2          -3.2270    -0.6050    -1.4380 c6         1 GBE       0.122300
      4 O2          -2.1600    -1.1530    -2.2500 oh         1 GBE      -0.759000
      5 C3          -3.0160     0.9220    -1.2430 c6         1 GBE       0.114300
      6 O3          -2.9420     1.5770    -2.5190 oh         1 GBE      -0.669000
      7 C4          -4.1650     1.5190    -0.3760 c6         1 GBE       0.143300
      8 O4          -3.9330     2.9250    -0.1820 oh         1 GBE      -0.723000
      9 C5          -4.2600     0.7360     0.9750 c6         1 GBE       0.181300
     10 O5          -4.4320    -0.6830     0.7110 os         1 GBE      -0.464000
     11 C6          -5.4530     1.2250     1.8630 c3         1 GBE       0.171600
     12 O6          -5.5920     0.4890     3.0970 oh         1 GBE      -0.711000
     13 OAA          6.4750     3.6200     0.4610 o          1 GBE      -0.697533
     14 OAB          6.4640     1.3820     1.5110 o          1 GBE      -0.697533
     15 OAG          4.7130     3.0320     2.0920 o          1 GBE      -0.697533
     16 CAH          3.6990     0.7840     0.1550 c3         1 GBE      -0.033400
     17 CAJ         -2.6180    -3.5600     0.5210 c3         1 GBE       0.167600
     18 CAL         -1.3550    -3.7350    -0.3740 c3         1 GBE       0.126800
     19 CAM          1.3770    -1.4890    -1.9540 c6         1 GBE       0.161800
     20 CAN          0.9710    -0.7030     0.3280 c6         1 GBE       0.161800
     21 CAO          0.5290    -2.7670    -1.6580 c6         1 GBE       0.153300
     22 CAP          0.1310    -1.9880     0.6120 c6         1 GBE       0.153300
     23 CAQ          4.6510     1.9380    -0.2580 c3         1 GBE      -0.359400
     24 NAY          2.0130    -0.9250    -0.7240 n3         1 GBE      -0.717600
     25 NAZ         -0.5280    -2.5190    -0.6250 n3         1 GBE      -0.731600
     26 SBA          5.6830     2.5560     1.0960 s6         1 GBE       1.323600
     27 H1          -2.4130    -1.0830     0.5320 h2         1 GBE       0.030700
     28 H2          -4.1920    -0.7550    -1.9470 h1         1 GBE       0.074700
     29 HO2         -1.5680    -1.6860    -1.6270 ho         1 GBE       0.561000
     30 H3          -2.0680     1.0630    -0.7010 h1         1 GBE       0.044700
     31 HO3         -2.4890     0.9220    -3.1030 ho         1 GBE       0.470000
     32 H4          -5.1120     1.3740    -0.9180 h1         1 GBE       0.050700
     33 HO4         -3.5750     3.2390    -1.0490 ho         1 GBE       0.525000
     34 H5          -3.3300     0.8800     1.5440 h1         1 GBE       0.059700
     35 H6          -5.3030     2.2910     2.0820 h1         1 GBE       0.033700
     36 H6A         -6.3750     1.1430     1.2710 h1         1 GBE       0.033700
     37 HO6         -6.4030     0.8270     3.5430 ho         1 GBE       0.498000
     38 HAH          3.0460     1.1320     0.9640 hc         1 GBE       0.054700
     39 HAHA         4.2860    -0.0540     0.5500 hc         1 GBE       0.054700
     40 HAJ         -2.3410    -3.1830     1.5140 h1         1 GBE       0.049700
     41 HAJA        -3.0690    -4.5500     0.6630 h1         1 GBE       0.049700
     42 HAK          2.1900     1.0930    -1.3660 h1         1 GBE       0.025200
     43 HAKA         3.5180     0.0370    -1.8510 h1         1 GBE       0.025200
     44 HAL         -0.7270    -4.5110     0.0840 h1         1 GBE       0.043700
     45 HALA        -1.6980    -4.1440    -1.3340 h1         1 GBE       0.043700
     46 HAM          2.1470    -1.7460    -2.6960 h1         1 GBE       0.042950
     47 HAMA         0.7230    -0.7370    -2.4200 h1         1 GBE       0.042950
     48 HAN          0.2860     0.1010     0.0210 h1         1 GBE       0.042950
     49 HANA         1.4340    -0.3890     1.2740 h1         1 GBE       0.042950
     50 HAO          0.0720    -3.1090    -2.5970 h1         1 GBE       0.039200
     51 HAOA         1.2060    -3.5660    -1.3210 h1         1 GBE       0.039200
     52 HAP          0.7970    -2.7510     1.0400 h1         1 GBE       0.039200
     53 HAPA        -0.6120    -1.7500     1.3850 h1         1 GBE       0.039200
     54 HAQ          5.3380     1.6030    -1.0420 h1         1 GBE       0.063700
     55 HAQA         4.0750     2.7940    -0.6240 h1         1 GBE       0.063700
     56 CAK          2.8350     0.2730    -1.0230 c3         1 GBE       0.165800
@<TRIPOS>BOND
     1     1     2 1   
     2     1     3 1   
     3     1    10 1   
     4     1    27 1   
     5     2    17 1   
     6     3     4 1   
     7     3     5 1   
     8     3    28 1   
     9     4    29 1   
    10     5     6 1   
    11     5     7 1   
    12     5    30 1   
    13     6    31 1   
    14     7     8 1   
    15     7     9 1   
    16     7    32 1   
    17     8    33 1   
    18     9    10 1   
    19     9    11 1   
    20     9    34 1   
    21    11    12 1   
    22    11    35 1   
    23    11    36 1   
    24    12    37 1   
    25    13    26 1   
    26    14    26 1   
    27    15    26 1   
    28    16    23 1   
    29    16    38 1   
    30    16    39 1   
    31    16    56 1   
    32    17    18 1   
    33    17    40 1   
    34    17    41 1   
    35    18    25 1   
    36    18    44 1   
    37    18    45 1   
    38    19    21 1   
    39    19    24 1   
    40    19    46 1   
    41    19    47 1   
    42    20    22 1   
    43    20    24 1   
    44    20    48 1   
    45    20    49 1   
    46    21    25 1   
    47    21    50 1   
    48    21    51 1   
    49    22    25 1   
    50    22    52 1   
    51    22    53 1   
    52    23    26 1   
    53    23    54 1   
    54    23    55 1   
    55    24    56 1   
    56    42    56 1   
    57    43    56 1   
@<TRIPOS>SUBSTRUCTURE
     1 GBE         1 TEMP              0 ****  ****    0 ROOT
