@<TRIPOS>MOLECULE
GBG
   29    28     1     0     0
SMALL
No Charge or Current Charge


@<TRIPOS>ATOM
      1 C4          -7.3300    32.7810    -3.1000 c3         1 GBG      -0.069400
      2 C3          -8.8710    32.8810    -3.1950 c3         1 GBG      -0.049400
      3 C2          -9.4090    34.3400    -3.2040 c3         1 GBG       0.027500
      4 C1          -8.8150    35.2000    -4.4030 c          1 GBG       0.708000
      5 O1          -8.8840    34.7620    -5.5450 o          1 GBG      -0.728000
      6 N1         -10.9100    34.3330    -3.0720 n8         1 GBG      -0.976200
      7 C5          -6.8220    31.3220    -3.0380 c3         1 GBG      -0.096400
      8 C6          -5.2850    31.2240    -2.9430 c3         1 GBG       0.229800
      9 N2          -4.8660    29.8150    -2.8900 nu         1 GBG      -0.914400
     10 C7          -3.5700    29.3660    -2.7810 c2         1 GBG       0.629200
     11 C8          -3.3790    27.8560    -2.6930 c3         1 GBG       0.031300
     12 N3          -2.6250    30.2230    -2.8000 n2         1 GBG      -0.845100
     13 H1          -6.9890    33.3190    -2.2060 hc         1 GBG       0.053700
     14 H2          -6.8740    33.2780    -3.9650 hc         1 GBG       0.053700
     15 H3          -9.2100    32.3610    -4.1000 hc         1 GBG       0.025200
     16 H4          -9.3070    32.3450    -2.3430 hc         1 GBG       0.025200
     17 H5          -9.0430    34.8100    -2.2810 h1         1 GBG       0.003700
     18 H7         -11.1720    33.8450    -2.2080 hn         1 GBG       0.363000
     19 H8         -11.2390    35.2940    -2.9250 hn         1 GBG       0.363000
     20 H10         -7.1620    30.7860    -3.9330 hc         1 GBG       0.032700
     21 H11         -7.2700    30.8230    -2.1700 hc         1 GBG       0.032700
     22 H12         -4.9450    31.7550    -2.0420 h1         1 GBG       0.056200
     23 H13         -4.8370    31.7200    -3.8160 h1         1 GBG       0.056200
     24 H14         -5.5810    29.1130    -2.7090 hn         1 GBG       0.486000
     25 H15         -3.5400    27.4050    -3.6800 h1         1 GBG       0.072200
     26 H16         -2.3600    27.6200    -2.3640 h1         1 GBG       0.072200
     27 H18         -1.7290    29.7240    -2.7270 hn         1 GBG       0.369400
     28 Cl1         -4.5270    27.0410    -1.5220 cl         1 GBG      -0.283000
     29 O2          -8.3470    36.3020    -4.1430 o          1 GBG      -0.728000
@<TRIPOS>BOND
     1     1     2 1   
     2     1     7 1   
     3     1    13 1   
     4     1    14 1   
     5     2     3 1   
     6     2    15 1   
     7     2    16 1   
     8     3     4 1   
     9     3     6 1   
    10     3    17 1   
    11     4     5 1   
    12     4    29 1   
    13     6    18 1   
    14     6    19 1   
    15     7     8 1   
    16     7    20 1   
    17     7    21 1   
    18     8     9 1   
    19     8    22 1   
    20     8    23 1   
    21     9    10 1   
    22     9    24 1   
    23    10    11 1   
    24    10    12 2   
    25    11    25 1   
    26    11    26 1   
    27    11    28 1   
    28    12    27 1   
@<TRIPOS>SUBSTRUCTURE
     1 GBG         1 TEMP              0 ****  ****    0 ROOT
