@<TRIPOS>MOLECULE
GBG
   29    28     1     0     0
SMALL
abcg2


@<TRIPOS>ATOM
      1 C4          -7.2630    32.7850    -3.2510 c3         1 GBG      -0.069400
      2 C3          -8.7840    32.8760    -3.1620 c3         1 GBG      -0.049400
      3 C2          -9.3290    34.3040    -3.0750 c3         1 GBG       0.027500
      4 C1          -8.9990    35.1010    -4.3650 c          1 GBG       0.708000
      5 O1          -9.6280    34.8110    -5.4130 o          1 GBG      -0.728000
      6 N1         -10.7840    34.2390    -2.8500 n8         1 GBG      -0.976200
      7 C5          -6.7640    31.3430    -3.2070 c3         1 GBG      -0.096400
      8 C6          -5.2450    31.2510    -3.2120 c3         1 GBG       0.229800
      9 N2          -4.8120    29.8650    -3.1930 nu         1 GBG      -0.914400
     10 C7          -3.6600    29.4360    -2.6360 c2         1 GBG       0.629200
     11 C8          -3.4900    27.9330    -2.6300 c3         1 GBG       0.031300
     12 N3          -2.7820    30.2470    -2.1540 n2         1 GBG      -0.845100
     13 H1          -6.8130    33.3510    -2.4280 hc         1 GBG       0.053700
     14 H2          -6.9190    33.2580    -4.1750 hc         1 GBG       0.053700
     15 H3          -9.2370    32.3870    -4.0290 hc         1 GBG       0.025200
     16 H4          -9.1230    32.3270    -2.2760 hc         1 GBG       0.025200
     17 H5          -8.8150    34.8170    -2.2530 h1         1 GBG       0.003700
     18 H7         -10.9570    33.7940    -1.9540 hn         1 GBG       0.363000
     19 H8         -11.1590    35.1790    -2.7710 hn         1 GBG       0.363000
     20 H10         -7.1620    30.7950    -4.0680 hc         1 GBG       0.032700
     21 H11         -7.1480    30.8440    -2.3110 hc         1 GBG       0.032700
     22 H12         -4.8270    31.7470    -2.3350 h1         1 GBG       0.056200
     23 H13         -4.8410    31.7660    -4.0920 h1         1 GBG       0.056200
     24 H14         -5.4280    29.1810    -3.6010 hn         1 GBG       0.486000
     25 H15         -3.7540    27.4910    -3.5880 h1         1 GBG       0.072200
     26 H16         -2.4790    27.6570    -2.3520 h1         1 GBG       0.072200
     27 H18         -2.0110    29.7240    -1.7500 hn         1 GBG       0.369400
     28 CL1         -4.5910    27.1620    -1.4030 cl         1 GBG      -0.283000
     29 O2          -8.0940    35.9720    -4.2650 o          1 GBG      -0.728000
@<TRIPOS>BOND
     1     1     2 1   
     2     1     7 1   
     3     1    13 1   
     4     1    14 1   
     5     2     3 1   
     6     2    15 1   
     7     2    16 1   
     8     3     4 1   
     9     3     6 1   
    10     3    17 1   
    11     4     5 1   
    12     4    29 1   
    13     6    18 1   
    14     6    19 1   
    15     7     8 1   
    16     7    20 1   
    17     7    21 1   
    18     8     9 1   
    19     8    22 1   
    20     8    23 1   
    21     9    10 1   
    22     9    24 1   
    23    10    11 1   
    24    10    12 2   
    25    11    25 1   
    26    11    26 1   
    27    11    28 1   
    28    12    27 1   
@<TRIPOS>SUBSTRUCTURE
     1 GBG         1 TEMP              0 ****  ****    0 ROOT
