@<TRIPOS>MOLECULE
GBH
   53    54     1     0     0
SMALL
No Charge or Current Charge


@<TRIPOS>ATOM
      1 C1           3.0460    -1.1460     0.5920 c6         1 GBH       0.367300
      2 O1           3.0540    -2.3670     1.3530 os         1 GBH      -0.436000
      3 C2           2.6750     0.0840     1.4890 c6         1 GBH       0.119300
      4 O2           1.3770    -0.0330     2.1240 oh         1 GBH      -0.752000
      5 C3           2.7210     1.3620     0.6070 c6         1 GBH       0.113300
      6 O3           2.4210     2.5210     1.4010 oh         1 GBH      -0.671000
      7 C4           4.1150     1.4980    -0.0730 c6         1 GBH       0.142300
      8 O4           4.1250     2.6700    -0.9080 oh         1 GBH      -0.725000
      9 C5           4.4370     0.1920    -0.8710 c6         1 GBH       0.181300
     10 O5           4.3500    -0.9590     0.0140 os         1 GBH      -0.463000
     11 C6           5.8650     0.2210    -1.5120 c3         1 GBH       0.170600
     12 O6           6.2050    -0.9920    -2.2160 oh         1 GBH      -0.710000
     13 OAA         -4.3170     3.4230    -0.8940 o          1 GBH      -0.696200
     14 OAB         -6.4850     2.2860    -0.5580 o          1 GBH      -0.696200
     15 OAG         -5.2100     1.9190    -2.6430 o          1 GBH      -0.696200
     16 CAI          2.1850    -3.4310     0.9070 c3         1 GBH       0.168600
     17 CAJ          0.7290    -3.1770     1.3990 c3         1 GBH       0.124800
     18 CAK         -0.2270    -2.0500    -0.6140 c6         1 GBH       0.152300
     19 CAL         -1.2710    -1.7240     1.5590 c6         1 GBH       0.152300
     20 CAM         -0.9350    -0.7680    -1.1530 c6         1 GBH       0.164300
     21 CAN         -1.9990    -0.4480     1.0280 c6         1 GBH       0.164300
     22 CAO         -2.9100     0.7040    -0.9920 c3         1 GBH       0.204800
     23 CAP         -4.3320     0.8800    -0.4450 c3         1 GBH      -0.357400
     24 NAX          0.0310    -1.9730     0.8610 n3         1 GBH      -0.731600
     25 NAY         -2.2260    -0.4930    -0.4520 n3         1 GBH      -0.719600
     26 SAZ         -5.1710     2.2710    -1.2160 s6         1 GBH       1.319600
     27 H1           2.3150    -1.2220    -0.2240 h2         1 GBH       0.031700
     28 H2           3.4560     0.1720     2.2600 h1         1 GBH       0.076700
     29 HO2          0.8930    -0.7850     1.6530 ho         1 GBH       0.559000
     30 H3           1.9620     1.2520    -0.1830 h1         1 GBH       0.044700
     31 HO3          1.7560     2.2020     2.0570 ho         1 GBH       0.473000
     32 H4           4.8730     1.6050     0.7190 h1         1 GBH       0.050700
     33 HO4          3.6080     3.3410    -0.3980 ho         1 GBH       0.525000
     34 H5           3.7020     0.0710    -1.6810 h1         1 GBH       0.056700
     35 H6           5.9150     1.0760    -2.2000 h1         1 GBH       0.034200
     36 H6A          6.5940     0.4080    -0.7100 h1         1 GBH       0.034200
     37 HO6          7.1380    -0.8960    -2.5190 ho         1 GBH       0.497000
     38 HAI          2.2130    -3.5380    -0.1850 h1         1 GBH       0.048700
     39 HAIA         2.5230    -4.3830     1.3360 h1         1 GBH       0.048700
     40 HAJ          0.1370    -4.0730     1.1650 h1         1 GBH       0.043700
     41 HAJA         0.7680    -3.1130     2.4940 h1         1 GBH       0.043700
     42 HAK         -0.8610    -2.9200    -0.8390 h1         1 GBH       0.036700
     43 HAKA         0.7090    -2.1880    -1.1720 h1         1 GBH       0.036700
     44 HAL         -1.1070    -1.6090     2.6400 h1         1 GBH       0.036700
     45 HALA        -1.9390    -2.5880     1.4280 h1         1 GBH       0.036700
     46 HAM         -0.2500     0.0840    -1.0330 h1         1 GBH       0.041200
     47 HAMA        -1.1080    -0.8930    -2.2320 h1         1 GBH       0.041200
     48 HAN         -2.9530    -0.3570     1.5660 h1         1 GBH       0.041200
     49 HANA        -1.3970     0.4340     1.2910 h1         1 GBH       0.041200
     50 HAO         -2.9690     0.6200    -2.0870 h1         1 GBH       0.045200
     51 HAOA        -2.3200     1.6050    -0.7690 h1         1 GBH       0.045200
     52 HAP         -4.9380    -0.0070    -0.6500 h1         1 GBH       0.070700
     53 HAPA        -4.3220     1.0870     0.6290 h1         1 GBH       0.070700
@<TRIPOS>BOND
     1     1     2 1   
     2     1     3 1   
     3     1    10 1   
     4     1    27 1   
     5     2    16 1   
     6     3     4 1   
     7     3     5 1   
     8     3    28 1   
     9     4    29 1   
    10     5     6 1   
    11     5     7 1   
    12     5    30 1   
    13     6    31 1   
    14     7     8 1   
    15     7     9 1   
    16     7    32 1   
    17     8    33 1   
    18     9    10 1   
    19     9    11 1   
    20     9    34 1   
    21    11    12 1   
    22    11    35 1   
    23    11    36 1   
    24    12    37 1   
    25    13    26 1   
    26    14    26 1   
    27    15    26 1   
    28    16    17 1   
    29    16    38 1   
    30    16    39 1   
    31    17    24 1   
    32    17    40 1   
    33    17    41 1   
    34    18    20 1   
    35    18    24 1   
    36    18    42 1   
    37    18    43 1   
    38    19    21 1   
    39    19    24 1   
    40    19    44 1   
    41    19    45 1   
    42    20    25 1   
    43    20    46 1   
    44    20    47 1   
    45    21    25 1   
    46    21    48 1   
    47    21    49 1   
    48    22    23 1   
    49    22    25 1   
    50    22    50 1   
    51    22    51 1   
    52    23    26 1   
    53    23    52 1   
    54    23    53 1   
@<TRIPOS>SUBSTRUCTURE
     1 GBH         1 TEMP              0 ****  ****    0 ROOT
