@<TRIPOS>MOLECULE
GBH
   53    54     1     0     0
SMALL
bcc


@<TRIPOS>ATOM
      1 C1           3.0390    -1.0000     0.5230 c6         1 GBH       0.320900
      2 O1           2.8700    -2.1320     1.2930 os         1 GBH      -0.389600
      3 C2           2.7170     0.2510     1.3390 c6         1 GBH       0.096100
      4 O2           1.3970     0.2750     1.8080 oh         1 GBH      -0.629800
      5 C3           2.9950     1.4680     0.4620 c6         1 GBH       0.090100
      6 O3           2.8120     2.6760     1.1620 oh         1 GBH      -0.608800
      7 C4           4.4260     1.4380    -0.0570 c6         1 GBH       0.119100
      8 O4           4.6690     2.4720    -0.9800 oh         1 GBH      -0.602800
      9 C5           4.6750     0.1030    -0.7630 c6         1 GBH       0.158100
     10 O5           4.3810    -0.9650     0.1150 os         1 GBH      -0.416600
     11 C6           6.1150    -0.0440    -1.2050 c3         1 GBH       0.147400
     12 O6           6.2580    -1.2600    -1.9000 oh         1 GBH      -0.587800
     13 OAA         -4.8920     3.1960    -0.5550 o          1 GBH      -0.696200
     14 OAB         -6.8820     1.7420    -0.5610 o          1 GBH      -0.696200
     15 OAG         -5.3930     1.8040    -2.5240 o          1 GBH      -0.696200
     16 CAI          2.0790    -3.1730     0.7500 c3         1 GBH       0.145400
     17 CAJ          0.6330    -3.0910     1.2070 c3         1 GBH       0.124800
     18 CAK         -0.3570    -1.8940    -0.6560 c6         1 GBH       0.152300
     19 CAL         -1.3310    -1.7500     1.5080 c6         1 GBH       0.152300
     20 CAM         -1.0770    -0.6220    -1.0560 c6         1 GBH       0.164300
     21 CAN         -2.0760    -0.4950     1.0910 c6         1 GBH       0.164300
     22 CAO         -3.0790     0.6650    -0.7780 c3         1 GBH       0.204800
     23 CAP         -4.5380     0.6050    -0.3530 c3         1 GBH      -0.246600
     24 NAX         -0.0770    -1.8940     0.7750 n3         1 GBH      -0.731600
     25 NAY         -2.3280    -0.4950    -0.3370 n3         1 GBH      -0.719600
     26 SAZ         -5.5070     1.9510    -1.0580 s6         1 GBH       1.208800
     27 H1           2.3950    -1.0230    -0.3750 h2         1 GBH       0.031700
     28 H2           3.4050     0.2750     2.1980 h1         1 GBH       0.076700
     29 HO2          0.8700    -0.4390     1.3780 ho         1 GBH       0.460000
     30 H3           2.3200     1.4240    -0.4110 h1         1 GBH       0.044700
     31 HO3          1.8880     2.7280     1.4250 ho         1 GBH       0.434000
     32 H4           5.1120     1.5060     0.8030 h1         1 GBH       0.050700
     33 HO4          4.4710     3.3100    -0.5490 ho         1 GBH       0.426000
     34 H5           4.0180     0.0540    -1.6480 h1         1 GBH       0.056700
     35 H6           6.3710     0.8140    -1.8350 h1         1 GBH       0.034200
     36 H6A          6.7630    -0.0000    -0.3190 h1         1 GBH       0.034200
     37 HO6          7.1460    -1.2880    -2.2660 ho         1 GBH       0.398000
     38 HAI          2.1610    -3.2000    -0.3420 h1         1 GBH       0.048700
     39 HAIA         2.4900    -4.1160     1.1160 h1         1 GBH       0.048700
     40 HAJ          0.1210    -4.0040     0.8670 h1         1 GBH       0.043700
     41 HAJA         0.6180    -3.1140     2.3000 h1         1 GBH       0.043700
     42 HAK         -0.9660    -2.7670    -0.9350 h1         1 GBH       0.036700
     43 HAKA         0.5720    -1.9590    -1.2230 h1         1 GBH       0.036700
     44 HAL         -1.1130    -1.6970     2.5760 h1         1 GBH       0.036700
     45 HALA        -1.9800    -2.6240     1.3480 h1         1 GBH       0.036700
     46 HAM         -0.4080     0.2400    -0.8850 h1         1 GBH       0.041200
     47 HAMA        -1.2820    -0.6590    -2.1280 h1         1 GBH       0.041200
     48 HAN         -3.0200    -0.4750     1.6380 h1         1 GBH       0.041200
     49 HANA        -1.5110     0.3990     1.4040 h1         1 GBH       0.041200
     50 HAO         -3.0390     0.6900    -1.8690 h1         1 GBH       0.045200
     51 HAOA        -2.6280     1.6040    -0.4210 h1         1 GBH       0.045200
     52 HAP         -4.9950    -0.3290    -0.6840 h1         1 GBH       0.070700
     53 HAPA        -4.6560     0.6720     0.7300 h1         1 GBH       0.070700
@<TRIPOS>BOND
     1     1     2 1   
     2     1     3 1   
     3     1    10 1   
     4     1    27 1   
     5     2    16 1   
     6     3     4 1   
     7     3     5 1   
     8     3    28 1   
     9     4    29 1   
    10     5     6 1   
    11     5     7 1   
    12     5    30 1   
    13     6    31 1   
    14     7     8 1   
    15     7     9 1   
    16     7    32 1   
    17     8    33 1   
    18     9    10 1   
    19     9    11 1   
    20     9    34 1   
    21    11    12 1   
    22    11    35 1   
    23    11    36 1   
    24    12    37 1   
    25    13    26 1   
    26    14    26 1   
    27    15    26 1   
    28    16    17 1   
    29    16    38 1   
    30    16    39 1   
    31    17    24 1   
    32    17    40 1   
    33    17    41 1   
    34    18    20 1   
    35    18    24 1   
    36    18    42 1   
    37    18    43 1   
    38    19    21 1   
    39    19    24 1   
    40    19    44 1   
    41    19    45 1   
    42    20    25 1   
    43    20    46 1   
    44    20    47 1   
    45    21    25 1   
    46    21    48 1   
    47    21    49 1   
    48    22    23 1   
    49    22    25 1   
    50    22    50 1   
    51    22    51 1   
    52    23    26 1   
    53    23    52 1   
    54    23    53 1   
@<TRIPOS>SUBSTRUCTURE
     1 GBH         1 TEMP              0 ****  ****    0 ROOT
