@<TRIPOS>MOLECULE
GBI
   48    48     1     0     0
SMALL
No Charge or Current Charge


@<TRIPOS>ATOM
      1 N1           3.3730    -1.5880     4.6800 n8         1 GBI      -0.994200
      2 CA1          3.5170    -0.2370     4.0250 c3         1 GBI       0.023500
      3 C1           4.3200     0.8650     4.8400 c          1 GBI       0.731000
      4 O11          3.9170     1.1820     5.9530 o          1 GBI      -0.737000
      5 O12          5.3520     1.3110     4.3540 o          1 GBI      -0.737000
      6 CB1          2.1250     0.3010     3.5950 c3         1 GBI      -0.091400
      7 CG1          1.4000    -0.5680     2.5310 c3         1 GBI      -0.156400
      8 CD1          0.1220     0.1070     2.0170 c          1 GBI       0.603100
      9 OE1          0.1480     1.0820     1.2800 o          1 GBI      -0.607100
     10 N2          -1.0560    -0.4870     2.4160 ns         1 GBI      -0.503900
     11 CA2         -2.3980    -0.1540     1.8610 c3         1 GBI       0.020700
     12 C2          -3.3890     0.3540     2.9490 c          1 GBI       0.577100
     13 O2          -4.5630     0.6040     2.7010 o          1 GBI      -0.681100
     14 CB2         -2.9920    -1.3570     1.0850 c3         1 GBI       0.052600
     15 SG2         -1.7920    -2.0830    -0.1370 ss         1 GBI      -0.469000
     16 N3          -2.8820     0.4870     4.2240 ns         1 GBI      -0.439900
     17 CA3         -3.6470     0.9410     5.4080 c3         1 GBI      -0.059000
     18 C3          -2.8250     0.8280     6.7230 c          1 GBI       0.713000
     19 O31         -1.6060     0.7490     6.6470 o          1 GBI      -0.728500
     20 O32         -3.4380     0.7860     7.7800 o          1 GBI      -0.728500
     21 C           -1.6720    -0.7070    -1.3720 c3         1 GBI       0.123900
     22 C7          -0.5440    -0.9800    -2.3540 ca         1 GBI      -0.085300
     23 C8           0.7940    -0.8000    -1.9490 ca         1 GBI      -0.055000
     24 C9           1.8440    -1.0540    -2.8460 ca         1 GBI       0.140000
     25 I3           3.8880    -0.7790    -2.2050 i          1 GBI      -0.175000
     26 C4           1.5680    -1.4860    -4.1530 ca         1 GBI      -0.086000
     27 C5           0.2350    -1.6670    -4.5630 ca         1 GBI      -0.135000
     28 C6          -0.8180    -1.4150    -3.6650 ca         1 GBI      -0.106000
     29 HN11         2.7230    -2.1600     4.1310 hn         1 GBI       0.380500
     30 HN12         2.8980    -1.4660     5.5830 hn         1 GBI       0.380500
     31 HA1          4.0900    -0.4010     3.1010 h1         1 GBI       0.040700
     32 HB11         1.4820     0.4170     4.4770 hc         1 GBI       0.061200
     33 HB12         2.2640     1.3080     3.1810 hc         1 GBI       0.061200
     34 HG11         2.0770    -0.7080     1.6800 hc         1 GBI       0.052700
     35 HG12         1.1540    -1.5420     2.9670 hc         1 GBI       0.052700
     36 HN2         -0.9630    -1.3300     2.9730 hn         1 GBI       0.311500
     37 HA2         -2.2900     0.6840     1.1630 h1         1 GBI       0.090700
     38 HB21        -3.2710    -2.1420     1.8010 h1         1 GBI       0.079200
     39 HB22        -3.9040    -1.0460     0.5580 h1         1 GBI       0.079200
     40 HN3         -1.8950     0.2820     4.3440 hn         1 GBI       0.355500
     41 HA31        -3.9350     1.9910     5.2680 h1         1 GBI       0.031700
     42 HA32        -4.5540     0.3320     5.5050 h1         1 GBI       0.031700
     43 H'1         -2.6280    -0.6110    -1.9040 h1         1 GBI       0.066700
     44 H'2         -1.4750     0.2390    -0.8540 h1         1 GBI       0.066700
     45 H2           1.0200    -0.4680    -0.9400 ha         1 GBI       0.147000
     46 H4           2.3840    -1.6820    -4.8440 ha         1 GBI       0.110000
     47 H5           0.0180    -2.0030    -5.5750 ha         1 GBI       0.093000
     48 H6          -1.8460    -1.5610    -3.9890 ha         1 GBI       0.098000
@<TRIPOS>BOND
     1     1     2 1   
     2     1    29 1   
     3     1    30 1   
     4     2     3 1   
     5     2     6 1   
     6     2    31 1   
     7     3     4 1   
     8     3     5 1   
     9     6     7 1   
    10     6    32 1   
    11     6    33 1   
    12     7     8 1   
    13     7    34 1   
    14     7    35 1   
    15     8     9 2   
    16     8    10 1   
    17    10    11 1   
    18    10    36 1   
    19    11    12 1   
    20    11    14 1   
    21    11    37 1   
    22    12    13 2   
    23    12    16 1   
    24    14    15 1   
    25    14    38 1   
    26    14    39 1   
    27    15    21 1   
    28    16    17 1   
    29    16    40 1   
    30    17    18 1   
    31    17    41 1   
    32    17    42 1   
    33    18    19 1   
    34    18    20 1   
    35    21    22 1   
    36    21    43 1   
    37    21    44 1   
    38    22    23 ar  
    39    22    28 ar  
    40    23    24 ar  
    41    23    45 1   
    42    24    25 1   
    43    24    26 ar  
    44    26    27 ar  
    45    26    46 1   
    46    27    28 ar  
    47    27    47 1   
    48    28    48 1   
@<TRIPOS>SUBSTRUCTURE
     1 GBI         1 TEMP              0 ****  ****    0 ROOT
