@<TRIPOS>MOLECULE
GBI
   48    48     1     0     0
SMALL
abcg2


@<TRIPOS>ATOM
      1 N1           3.7530    -1.2200     4.5020 n8         1 GBI      -0.994200
      2 CA1          3.6350    -0.5980     3.1900 c3         1 GBI       0.023500
      3 C1           4.8630     0.2920     2.9140 c          1 GBI       0.731000
      4 O11          5.3530     0.8930     3.8870 o          1 GBI      -0.737000
      5 O12          5.2580     0.3800     1.7270 o          1 GBI      -0.737000
      6 CB1          2.3580     0.2380     2.9970 c3         1 GBI      -0.091400
      7 CG1          1.1110    -0.6280     2.8900 c3         1 GBI      -0.156400
      8 CD1         -0.1300     0.1270     2.4630 c          1 GBI       0.603100
      9 OE1         -0.1000     1.2680     2.0300 o          1 GBI      -0.607100
     10 N2          -1.2840    -0.5790     2.5600 ns         1 GBI      -0.503900
     11 CA2         -2.5090    -0.1560     1.9320 c3         1 GBI       0.020700
     12 C2          -3.5760     0.3450     2.9100 c          1 GBI       0.577100
     13 O2          -4.6580     0.7320     2.4790 o          1 GBI      -0.681100
     14 CB2         -3.1110    -1.2710     1.0690 c3         1 GBI       0.052600
     15 SG2         -1.9600    -1.9830    -0.1300 ss         1 GBI      -0.469000
     16 N3          -3.2510     0.3290     4.1960 ns         1 GBI      -0.439900
     17 CA3         -4.1240     0.7560     5.2580 c3         1 GBI      -0.059000
     18 C3          -3.4240     0.6120     6.6250 c          1 GBI       0.713000
     19 O31         -2.2580     0.1720     6.6180 o          1 GBI      -0.728500
     20 O32         -4.1030     0.9530     7.6080 o          1 GBI      -0.728500
     21 C           -1.7840    -0.6430    -1.3610 c3         1 GBI       0.123900
     22 C7          -0.4430    -0.7960    -2.0160 ca         1 GBI      -0.085300
     23 C8           0.6980    -0.4670    -1.2900 ca         1 GBI      -0.055000
     24 C9           1.9600    -0.6650    -1.8270 ca         1 GBI       0.140000
     25 I3           3.6000    -0.2530    -0.5670 i          1 GBI      -0.175000
     26 C4           2.1050    -1.1760    -3.1120 ca         1 GBI      -0.086000
     27 C5           0.9670    -1.4880    -3.8430 ca         1 GBI      -0.135000
     28 C6          -0.3010    -1.3100    -3.2990 ca         1 GBI      -0.106000
     29 HN11         2.8850    -1.6790     4.7520 hn         1 GBI       0.380500
     30 HN12         3.9010    -0.4900     5.1890 hn         1 GBI       0.380500
     31 HA1          3.6220    -1.3990     2.4430 h1         1 GBI       0.040700
     32 HB11         2.2620     0.9470     3.8260 hc         1 GBI       0.061200
     33 HB12         2.4460     0.8330     2.0870 hc         1 GBI       0.061200
     34 HG11         1.2730    -1.4070     2.1350 hc         1 GBI       0.052700
     35 HG12         0.9070    -1.1600     3.8250 hc         1 GBI       0.052700
     36 HN2         -1.2160    -1.5460     2.8380 hn         1 GBI       0.311500
     37 HA2         -2.2760     0.6980     1.2920 h1         1 GBI       0.090700
     38 HB21        -3.4170    -2.1140     1.6950 h1         1 GBI       0.079200
     39 HB22        -4.0050    -0.9070     0.5650 h1         1 GBI       0.079200
     40 HN3         -2.3440     0.0000     4.4980 hn         1 GBI       0.355500
     41 HA31        -4.4270     1.7980     5.1190 h1         1 GBI       0.031700
     42 HA32        -5.0440     0.1640     5.2660 h1         1 GBI       0.031700
     43 H'1         -2.5950    -0.6930    -2.0870 h1         1 GBI       0.066700
     44 H'2         -1.8490     0.3160    -0.8450 h1         1 GBI       0.066700
     45 H2           0.5850    -0.0580    -0.2940 ha         1 GBI       0.147000
     46 H4           3.0840    -1.3380    -3.5420 ha         1 GBI       0.110000
     47 H5           1.0710    -1.8870    -4.8440 ha         1 GBI       0.093000
     48 H6          -1.1790    -1.5740    -3.8760 ha         1 GBI       0.098000
@<TRIPOS>BOND
     1     1     2 1   
     2     1    29 1   
     3     1    30 1   
     4     2     3 1   
     5     2     6 1   
     6     2    31 1   
     7     3     4 1   
     8     3     5 1   
     9     6     7 1   
    10     6    32 1   
    11     6    33 1   
    12     7     8 1   
    13     7    34 1   
    14     7    35 1   
    15     8     9 2   
    16     8    10 1   
    17    10    11 1   
    18    10    36 1   
    19    11    12 1   
    20    11    14 1   
    21    11    37 1   
    22    12    13 2   
    23    12    16 1   
    24    14    15 1   
    25    14    38 1   
    26    14    39 1   
    27    15    21 1   
    28    16    17 1   
    29    16    40 1   
    30    17    18 1   
    31    17    41 1   
    32    17    42 1   
    33    18    19 1   
    34    18    20 1   
    35    21    22 1   
    36    21    43 1   
    37    21    44 1   
    38    22    23 ar  
    39    22    28 ar  
    40    23    24 ar  
    41    23    45 1   
    42    24    25 1   
    43    24    26 ar  
    44    26    27 ar  
    45    26    46 1   
    46    27    28 ar  
    47    27    47 1   
    48    28    48 1   
@<TRIPOS>SUBSTRUCTURE
     1 GBI         1 TEMP              0 ****  ****    0 ROOT
