@<TRIPOS>MOLECULE
GBJ
   44    47     1     0     0
SMALL
abcg2


@<TRIPOS>ATOM
      1 C1           6.6640     0.5620     0.3920 c3         1 GBJ      -0.097100
      2 C2           5.3120     0.4000    -0.2830 c6         1 GBJ       0.230200
      3 C3           4.4720     1.6370    -0.1140 c2         1 GBJ      -0.278200
      4 C4           3.1490     1.5490     0.0130 ce         1 GBJ      -0.105200
      5 C5           2.5190     0.2380     0.0510 ca         1 GBJ      -0.178800
      6 C6           3.3480    -0.8700     0.2440 ca         1 GBJ       0.187100
      7 C7           2.8130    -2.1460     0.3660 ca         1 GBJ      -0.181000
      8 C8           1.4390    -2.3060     0.2840 ca         1 GBJ      -0.036000
      9 C9           0.5770    -1.2350     0.0690 ca         1 GBJ      -0.199300
     10 C10          1.1370     0.0370    -0.0460 ca         1 GBJ       0.194100
     11 O1           0.3900     1.1450    -0.2290 os         1 GBJ      -0.342100
     12 C11         -0.9860     0.9770    -0.5410 c6         1 GBJ       0.166600
     13 C12         -1.6370    -0.1300     0.2820 c6         1 GBJ      -0.035400
     14 C13         -0.9110    -1.4310    -0.0360 c6         1 GBJ      -0.014100
     15 C14         -3.1250    -0.1450     0.0300 ca         1 GBJ      -0.147300
     16 C15         -3.7350    -0.9940    -0.8870 ca         1 GBJ      -0.036000
     17 C16         -5.0980    -0.9760    -1.1390 ca         1 GBJ      -0.181000
     18 C17         -5.9000    -0.0690    -0.4540 ca         1 GBJ       0.183100
     19 C18         -5.3260     0.7970     0.4700 ca         1 GBJ      -0.305000
     20 C19         -3.9560     0.7590     0.7070 ca         1 GBJ       0.183100
     21 O2          -3.3790     1.5930     1.5940 oh         1 GBJ      -0.532100
     22 O3          -7.2210    -0.0660    -0.7160 oh         1 GBJ      -0.529100
     23 O4           4.6800    -0.7120     0.3790 os         1 GBJ      -0.350100
     24 C20          5.4790     0.0760    -1.7660 c3         1 GBJ      -0.097100
     25 H1           6.5520     0.7910     1.4520 hc         1 GBJ       0.046200
     26 H2           7.2630    -0.3440     0.2920 hc         1 GBJ       0.046200
     27 H3           7.2140     1.3800    -0.0730 hc         1 GBJ       0.046200
     28 H4           4.9740     2.5970    -0.1370 ha         1 GBJ       0.185000
     29 H6           2.5420     2.4390     0.1070 ha         1 GBJ       0.196000
     30 H8           3.4630    -2.9950     0.5310 ha         1 GBJ       0.130000
     31 H9           1.0190    -3.3000     0.3850 ha         1 GBJ       0.111000
     32 H10         -1.4490     1.9440    -0.3500 h1         1 GBJ       0.058200
     33 H11         -1.0970     0.7510    -1.6090 h1         1 GBJ       0.058200
     34 H12         -1.4660     0.0970     1.3400 hc         1 GBJ       0.083700
     35 H13         -1.1520    -1.7680    -1.0490 hc         1 GBJ       0.051200
     36 H14         -1.2350    -2.2270     0.6390 hc         1 GBJ       0.051200
     37 H15         -3.1310    -1.7080    -1.4330 ha         1 GBJ       0.119000
     38 H16         -5.5350    -1.6550    -1.8600 ha         1 GBJ       0.134000
     39 H17         -5.9470     1.5070     1.0080 ha         1 GBJ       0.114000
     40 H18         -4.0390     2.1610     2.0070 ho         1 GBJ       0.467000
     41 H19         -7.6660     0.6220    -0.2080 ho         1 GBJ       0.466000
     42 H20          6.1090    -0.8040    -1.9050 hc         1 GBJ       0.046200
     43 H21          4.5150    -0.1040    -2.2460 hc         1 GBJ       0.046200
     44 H22          5.9520     0.9140    -2.2800 hc         1 GBJ       0.046200
@<TRIPOS>BOND
     1     1     2 1   
     2     1    25 1   
     3     1    26 1   
     4     1    27 1   
     5     2     3 1   
     6     2    23 1   
     7     2    24 1   
     8     3     4 2   
     9     3    28 1   
    10     4     5 1   
    11     4    29 1   
    12     5     6 ar  
    13     5    10 ar  
    14     6     7 ar  
    15     6    23 1   
    16     7     8 ar  
    17     7    30 1   
    18     8     9 ar  
    19     8    31 1   
    20     9    10 ar  
    21     9    14 1   
    22    10    11 1   
    23    11    12 1   
    24    12    13 1   
    25    12    32 1   
    26    12    33 1   
    27    13    14 1   
    28    13    15 1   
    29    13    34 1   
    30    14    35 1   
    31    14    36 1   
    32    15    16 ar  
    33    15    20 ar  
    34    16    17 ar  
    35    16    37 1   
    36    17    18 ar  
    37    17    38 1   
    38    18    19 ar  
    39    18    22 1   
    40    19    20 ar  
    41    19    39 1   
    42    20    21 1   
    43    21    40 1   
    44    22    41 1   
    45    24    42 1   
    46    24    43 1   
    47    24    44 1   
@<TRIPOS>SUBSTRUCTURE
     1 GBJ         1 TEMP              0 ****  ****    0 ROOT
