@<TRIPOS>MOLECULE
GBJ
   44    47     1     0     0
SMALL
No Charge or Current Charge


@<TRIPOS>ATOM
      1 C1           6.7350     0.5620     0.5620 c3         1 GBJ      -0.097100
      2 C2           5.4180     0.3920    -0.2360 c6         1 GBJ       0.230200
      3 C3           4.5560     1.6420    -0.1320 c2         1 GBJ      -0.278200
      4 C4           3.2150     1.5580    -0.0570 ce         1 GBJ      -0.105200
      5 C5           2.5600     0.2280    -0.0160 ca         1 GBJ      -0.178800
      6 C6           3.3770    -0.9050     0.1670 ca         1 GBJ       0.187100
      7 C7           2.8060    -2.1810     0.2640 ca         1 GBJ      -0.181000
      8 C8           1.4160    -2.3430     0.1590 ca         1 GBJ      -0.036000
      9 C9           0.5880    -1.2210    -0.0320 ca         1 GBJ      -0.199300
     10 C10          1.1630     0.0690    -0.1270 ca         1 GBJ       0.194100
     11 O1           0.3700     1.1890    -0.2940 os         1 GBJ      -0.342100
     12 C11         -1.0240     1.0360    -0.6420 c6         1 GBJ       0.166600
     13 C12         -1.6800    -0.0940     0.1830 c6         1 GBJ      -0.035400
     14 C13         -0.9260    -1.4080    -0.1410 c6         1 GBJ      -0.014100
     15 C14         -3.2200    -0.1280     0.0030 ca         1 GBJ      -0.147300
     16 C15         -3.8540    -1.0740    -0.8370 ca         1 GBJ      -0.036000
     17 C16         -5.2520    -1.0740    -0.9820 ca         1 GBJ      -0.181000
     18 C17         -6.0310    -0.1360    -0.2990 ca         1 GBJ       0.183100
     19 C18         -5.4240     0.8100     0.5320 ca         1 GBJ      -0.305000
     20 C19         -4.0290     0.8170     0.6810 ca         1 GBJ       0.183100
     21 O2          -3.4740     1.7570     1.4960 oh         1 GBJ      -0.532100
     22 O3          -7.3830    -0.1430    -0.4450 oh         1 GBJ      -0.529100
     23 O4           4.7460    -0.7720     0.3010 os         1 GBJ      -0.350100
     24 C20          5.7330     0.0940    -1.7260 c3         1 GBJ      -0.097100
     25 H1           6.5290     0.7690     1.6190 hc         1 GBJ       0.046200
     26 H2           7.3510    -0.3430     0.5120 hc         1 GBJ       0.046200
     27 H3           7.3330     1.3940     0.1710 hc         1 GBJ       0.046200
     28 H4           5.0660     2.6060    -0.1590 ha         1 GBJ       0.185000
     29 H6           2.5780     2.4460    -0.0140 ha         1 GBJ       0.196000
     30 H8           3.4450    -3.0470     0.4190 ha         1 GBJ       0.130000
     31 H9           0.9830    -3.3390     0.2310 ha         1 GBJ       0.111000
     32 H10         -1.5360     1.9920    -0.4660 h1         1 GBJ       0.058200
     33 H11         -1.1010     0.8040    -1.7140 h1         1 GBJ       0.058200
     34 H12         -1.4770     0.1220     1.2410 hc         1 GBJ       0.083700
     35 H13         -1.1390    -1.7360    -1.1670 hc         1 GBJ       0.051200
     36 H14         -1.2660    -2.2090     0.5300 hc         1 GBJ       0.051200
     37 H15         -3.2850    -1.8160    -1.3900 ha         1 GBJ       0.119000
     38 H16         -5.7290    -1.8050    -1.6290 ha         1 GBJ       0.134000
     39 H17         -6.0320     1.5400     1.0590 ha         1 GBJ       0.114000
     40 H18         -4.1990     2.2970     1.8720 ho         1 GBJ       0.467000
     41 H19         -7.7500     0.5810     0.1060 ho         1 GBJ       0.466000
     42 H20          6.3320    -0.8180    -1.8320 hc         1 GBJ       0.046200
     43 H21          4.8130    -0.0400    -2.3060 hc         1 GBJ       0.046200
     44 H22          6.2950     0.9170    -2.1830 hc         1 GBJ       0.046200
@<TRIPOS>BOND
     1     1     2 1   
     2     1    25 1   
     3     1    26 1   
     4     1    27 1   
     5     2     3 1   
     6     2    23 1   
     7     2    24 1   
     8     3     4 2   
     9     3    28 1   
    10     4     5 1   
    11     4    29 1   
    12     5     6 ar  
    13     5    10 ar  
    14     6     7 ar  
    15     6    23 1   
    16     7     8 ar  
    17     7    30 1   
    18     8     9 ar  
    19     8    31 1   
    20     9    10 ar  
    21     9    14 1   
    22    10    11 1   
    23    11    12 1   
    24    12    13 1   
    25    12    32 1   
    26    12    33 1   
    27    13    14 1   
    28    13    15 1   
    29    13    34 1   
    30    14    35 1   
    31    14    36 1   
    32    15    16 ar  
    33    15    20 ar  
    34    16    17 ar  
    35    16    37 1   
    36    17    18 ar  
    37    17    38 1   
    38    18    19 ar  
    39    18    22 1   
    40    19    20 ar  
    41    19    39 1   
    42    20    21 1   
    43    21    40 1   
    44    22    41 1   
    45    24    42 1   
    46    24    43 1   
    47    24    44 1   
@<TRIPOS>SUBSTRUCTURE
     1 GBJ         1 TEMP              0 ****  ****    0 ROOT
