@<TRIPOS>MOLECULE
GBK
   46    48     1     0     0
SMALL
No Charge or Current Charge


@<TRIPOS>ATOM
      1 C10          0.7930     2.8690    -1.0240 c6         1 GBK      -0.068400
      2 C13          2.4570     1.1380    -0.1330 c6         1 GBK       0.218800
      3 C17          2.8060    -0.3540     0.0070 ca         1 GBK      -0.097300
      4 C20          3.4270    -3.1040     0.1970 ca         1 GBK      -0.109000
      5 C21          3.9530    -2.3340    -0.8540 ca         1 GBK      -0.114500
      6 C22          3.6430    -0.9660    -0.9490 ca         1 GBK      -0.101500
      7 C01         -4.9810     1.6960     0.0590 c3         1 GBK       0.147900
      8 C02         -3.3890    -0.1920    -0.0960 ca         1 GBK       0.167100
      9 C03         -4.2780    -1.0690     0.5710 ca         1 GBK      -0.207000
     10 C04         -3.9120    -2.4030     0.8110 ca         1 GBK      -0.069000
     11 C05         -2.6610    -2.8740     0.3880 ca         1 GBK      -0.153000
     12 C06         -1.7720    -2.0130    -0.2750 ca         1 GBK      -0.074000
     13 C07         -2.1260    -0.6700    -0.5200 ca         1 GBK      -0.118300
     14 C08         -1.1330     0.2330    -1.2430 c3         1 GBK       0.219100
     15 C09          1.1110     1.3510    -0.9280 c6         1 GBK       0.190500
     16 C11          0.8240     3.5360     0.3760 c6         1 GBK      -0.071400
     17 C12          2.1720     3.2710     1.0930 c6         1 GBK       0.166800
     18 N14         -0.0260     0.5910    -0.3430 n7         1 GBK      -0.844400
     19 N15          2.4630     1.8220     1.1930 n7         1 GBK      -0.847400
     20 C18          2.2820    -1.1370     1.0610 ca         1 GBK      -0.101500
     21 C19          2.5920    -2.5050     1.1530 ca         1 GBK      -0.114500
     22 H1           1.5380     3.3520    -1.6700 hc         1 GBK       0.037200
     23 H2          -0.1810     3.0340    -1.5030 hc         1 GBK       0.037200
     24 H3           3.2550     1.6030    -0.7310 h1         1 GBK       0.022700
     25 H4           3.6670    -4.1620     0.2690 ha         1 GBK       0.112000
     26 H5           4.5990    -2.7970    -1.5970 ha         1 GBK       0.112000
     27 H6           4.0500    -0.3810    -1.7720 ha         1 GBK       0.122000
     28 H7          -5.8200     1.1680    -0.4120 h1         1 GBK       0.038367
     29 H8          -5.0970     1.6450     1.1490 h1         1 GBK       0.038367
     30 H9          -5.0330     2.7510    -0.2390 h1         1 GBK       0.038367
     31 H10         -5.2540    -0.7340     0.9090 ha         1 GBK       0.115000
     32 H11         -4.6000    -3.0730     1.3240 ha         1 GBK       0.109000
     33 H12         -2.3780    -3.9080     0.5730 ha         1 GBK       0.114000
     34 H13         -0.8040    -2.3890    -0.5990 ha         1 GBK       0.110000
     35 H14         -0.7460    -0.3110    -2.1160 h1         1 GBK       0.032200
     36 H15         -1.6310     1.1340    -1.6230 h1         1 GBK       0.032200
     37 H16          1.2760     0.9670    -1.9460 h1         1 GBK       0.015700
     38 H17          0.6630     4.6180     0.2790 hc         1 GBK       0.055200
     39 H18         -0.0020     3.1520     0.9920 hc         1 GBK       0.055200
     40 H19          2.9830     3.7650     0.5370 h1         1 GBK       0.024200
     41 H20          2.1460     3.7080     2.1010 h1         1 GBK       0.024200
     42 H21          0.3620    -0.2840     0.0200 hn         1 GBK       0.421000
     43 H23          3.3880     1.6950     1.6170 hn         1 GBK       0.408000
     44 H25          1.6330    -0.6850     1.8080 ha         1 GBK       0.122000
     45 H26          2.1840    -3.1000     1.9680 ha         1 GBK       0.112000
     46 O16         -3.7250     1.1260    -0.3480 os         1 GBK      -0.326100
@<TRIPOS>BOND
     1     1    15 1   
     2     1    16 1   
     3     1    22 1   
     4     1    23 1   
     5     2     3 1   
     6     2    15 1   
     7     2    19 1   
     8     2    24 1   
     9     3     6 ar  
    10     3    20 ar  
    11     4     5 ar  
    12     4    21 ar  
    13     4    25 1   
    14     5     6 ar  
    15     5    26 1   
    16     6    27 1   
    17     7    28 1   
    18     7    29 1   
    19     7    30 1   
    20     7    46 1   
    21     8     9 ar  
    22     8    13 ar  
    23     8    46 1   
    24     9    10 ar  
    25     9    31 1   
    26    10    11 ar  
    27    10    32 1   
    28    11    12 ar  
    29    11    33 1   
    30    12    13 ar  
    31    12    34 1   
    32    13    14 1   
    33    14    18 1   
    34    14    35 1   
    35    14    36 1   
    36    15    18 1   
    37    15    37 1   
    38    16    17 1   
    39    16    38 1   
    40    16    39 1   
    41    17    19 1   
    42    17    40 1   
    43    17    41 1   
    44    18    42 1   
    45    19    43 1   
    46    20    21 ar  
    47    20    44 1   
    48    21    45 1   
@<TRIPOS>SUBSTRUCTURE
     1 GBK         1 TEMP              0 ****  ****    0 ROOT
