@<TRIPOS>MOLECULE
GBK
   46    48     1     0     0
SMALL
bcc


@<TRIPOS>ATOM
      1 C10          0.6360     2.5790    -1.2580 c6         1 GBK      -0.068400
      2 C13          2.2750     1.1510    -0.0390 c6         1 GBK       0.218800
      3 C17          2.7970    -0.2440     0.2050 ca         1 GBK      -0.097300
      4 C20          3.7340    -2.8620     0.5490 ca         1 GBK      -0.127000
      5 C21          4.1020    -2.1280    -0.5730 ca         1 GBK      -0.132500
      6 C22          3.6380    -0.8320    -0.7390 ca         1 GBK      -0.119500
      7 C01         -3.8810     1.9210     0.8460 c3         1 GBK       0.124700
      8 C02         -3.0800    -0.1350    -0.0330 ca         1 GBK       0.167100
      9 C03         -4.0950    -0.8610     0.5850 ca         1 GBK      -0.225000
     10 C04         -4.1670    -2.2400     0.4160 ca         1 GBK      -0.087000
     11 C05         -3.2380    -2.9030    -0.3660 ca         1 GBK      -0.171000
     12 C06         -2.2280    -2.1680    -0.9800 ca         1 GBK      -0.092000
     13 C07         -2.1290    -0.7930    -0.8320 ca         1 GBK      -0.118300
     14 C08         -1.0020    -0.0360    -1.4790 c3         1 GBK       0.219100
     15 C09          1.0810     1.1360    -1.0160 c6         1 GBK       0.190500
     16 C11          0.3160     3.2730     0.0590 c6         1 GBK      -0.071400
     17 C12          1.5080     3.1910     0.9970 c6         1 GBK       0.166800
     18 N14         -0.0120     0.3420    -0.4870 n7         1 GBK      -0.789200
     19 N15          1.9020     1.8060     1.2000 n7         1 GBK      -0.792200
     20 C18          2.4360    -0.9870     1.3270 ca         1 GBK      -0.119500
     21 C19          2.9020    -2.2860     1.4980 ca         1 GBK      -0.132500
     22 H1           1.4450     3.1090    -1.7720 hc         1 GBK       0.037200
     23 H2          -0.2240     2.6140    -1.9300 hc         1 GBK       0.037200
     24 H3           3.0700     1.7080    -0.5670 h1         1 GBK       0.022700
     25 H4           4.0980    -3.8730     0.6830 ha         1 GBK       0.130000
     26 H5           4.7560    -2.5650    -1.3170 ha         1 GBK       0.130000
     27 H6           3.9390    -0.2650    -1.6130 ha         1 GBK       0.140000
     28 H7          -4.8970     1.8350     0.4500 h1         1 GBK       0.038367
     29 H8          -3.8840     1.5990     1.8910 h1         1 GBK       0.038367
     30 H9          -3.5770     2.9640     0.8030 h1         1 GBK       0.038367
     31 H10         -4.8380    -0.3710     1.1990 ha         1 GBK       0.133000
     32 H11         -4.9620    -2.7890     0.9040 ha         1 GBK       0.127000
     33 H12         -3.2930    -3.9750    -0.5010 ha         1 GBK       0.132000
     34 H13         -1.4940    -2.6770    -1.5930 ha         1 GBK       0.128000
     35 H14         -0.5790    -0.6540    -2.2870 h1         1 GBK       0.032200
     36 H15         -1.3900     0.8640    -1.9590 h1         1 GBK       0.032200
     37 H16          1.4600     0.7260    -1.9680 h1         1 GBK       0.015700
     38 H17          0.0570     4.3200    -0.1120 hc         1 GBK       0.055200
     39 H18         -0.5510     2.7920     0.5160 hc         1 GBK       0.055200
     40 H19          2.3290     3.7960     0.5770 h1         1 GBK       0.024200
     41 H20          1.2610     3.6260     1.9680 h1         1 GBK       0.024200
     42 H21          0.3550    -0.5090    -0.0770 hn         1 GBK       0.365800
     43 H23          2.6890     1.7750     1.8360 hn         1 GBK       0.352800
     44 H25          1.7880    -0.5470     2.0740 ha         1 GBK       0.140000
     45 H26          2.6110    -2.8480     2.3760 ha         1 GBK       0.130000
     46 O16         -2.9470     1.2000     0.0720 os         1 GBK      -0.302900
@<TRIPOS>BOND
     1     1    15 1   
     2     1    16 1   
     3     1    22 1   
     4     1    23 1   
     5     2     3 1   
     6     2    15 1   
     7     2    19 1   
     8     2    24 1   
     9     3     6 ar  
    10     3    20 ar  
    11     4     5 ar  
    12     4    21 ar  
    13     4    25 1   
    14     5     6 ar  
    15     5    26 1   
    16     6    27 1   
    17     7    28 1   
    18     7    29 1   
    19     7    30 1   
    20     7    46 1   
    21     8     9 ar  
    22     8    13 ar  
    23     8    46 1   
    24     9    10 ar  
    25     9    31 1   
    26    10    11 ar  
    27    10    32 1   
    28    11    12 ar  
    29    11    33 1   
    30    12    13 ar  
    31    12    34 1   
    32    13    14 1   
    33    14    18 1   
    34    14    35 1   
    35    14    36 1   
    36    15    18 1   
    37    15    37 1   
    38    16    17 1   
    39    16    38 1   
    40    16    39 1   
    41    17    19 1   
    42    17    40 1   
    43    17    41 1   
    44    18    42 1   
    45    19    43 1   
    46    20    21 ar  
    47    20    44 1   
    48    21    45 1   
@<TRIPOS>SUBSTRUCTURE
     1 GBK         1 TEMP              0 ****  ****    0 ROOT
