@<TRIPOS>MOLECULE
GBL
   12    12     1     0     0
SMALL
bcc


@<TRIPOS>ATOM
      1 CA           0.0690     1.2360    -0.0660 c5         1 GBL      -0.198400
      2 C           -0.8060     0.0190     0.0980 c          1 GBL       0.728600
      3 O           -1.9950    -0.0360     0.2600 o          1 GBL      -0.564500
      4 CB           1.4670     0.6930     0.1890 c5         1 GBL      -0.114400
      5 CG           1.3170    -0.7660    -0.2260 c5         1 GBL       0.131400
      6 OD          -0.0610    -1.0860     0.0260 os         1 GBL      -0.406900
      7 HAC1        -0.0480     1.6020    -1.0900 hc         1 GBL       0.083200
      8 HAC2        -0.2420     2.0360     0.6050 hc         1 GBL       0.083200
      9 HBC1         2.2430     1.1990    -0.3810 hc         1 GBL       0.065200
     10 HBC2         1.7190     0.7680     1.2480 hc         1 GBL       0.065200
     11 HGC1         1.5180    -0.9100    -1.2890 h1         1 GBL       0.062700
     12 HGC2         1.9350    -1.4530     0.3470 h1         1 GBL       0.062700
@<TRIPOS>BOND
     1     1     2 1   
     2     1     4 1   
     3     1     7 1   
     4     1     8 1   
     5     2     3 2   
     6     2     6 1   
     7     4     5 1   
     8     4     9 1   
     9     4    10 1   
    10     5     6 1   
    11     5    11 1   
    12     5    12 1   
@<TRIPOS>SUBSTRUCTURE
     1 GBL         1 TEMP              0 ****  ****    0 ROOT
