@<TRIPOS>MOLECULE
GBL
   12    12     1     0     0
SMALL
No Charge or Current Charge


@<TRIPOS>ATOM
      1 CA           0.0620     1.2180    -0.1860 c5         1 GBL      -0.198400
      2 C           -0.8620     0.0130     0.0290 c          1 GBL       0.653100
      3 O           -1.8570     0.0240     0.7370 o          1 GBL      -0.489000
      4 CB           1.4330     0.6870     0.2870 c5         1 GBL      -0.114400
      5 CG           1.3070    -0.7450    -0.2850 c5         1 GBL       0.154600
      6 OD          -0.0670    -1.1040    -0.0140 os         1 GBL      -0.430100
      7 HAC1         0.1280     1.4090    -1.2630 hc         1 GBL       0.083200
      8 HAC2        -0.2930     2.1060     0.3470 hc         1 GBL       0.083200
      9 HBC1         2.2840     1.2420    -0.1240 hc         1 GBL       0.065200
     10 HBC2         1.5210     0.6780     1.3800 hc         1 GBL       0.065200
     11 HGC1         1.4710    -0.7610    -1.3720 h1         1 GBL       0.062700
     12 HGC2         1.9900    -1.4650     0.1860 h1         1 GBL       0.062700
@<TRIPOS>BOND
     1     1     2 1   
     2     1     4 1   
     3     1     7 1   
     4     1     8 1   
     5     2     3 2   
     6     2     6 1   
     7     4     5 1   
     8     4     9 1   
     9     4    10 1   
    10     5     6 1   
    11     5    11 1   
    12     5    12 1   
@<TRIPOS>SUBSTRUCTURE
     1 GBL         1 TEMP              0 ****  ****    0 ROOT
