@<TRIPOS>MOLECULE
GBM
   61    63     1     0     0
SMALL
No Charge or Current Charge


@<TRIPOS>ATOM
      1 O3           4.6700     0.4150    -0.9290 o          1 GBM      -0.610100
      2 O4           4.3960     3.1490     2.5210 o          1 GBM      -0.532500
      3 O5           4.4610     3.3540    -0.0300 o          1 GBM      -0.532500
      4 O6          -4.0730     0.6420    -1.3240 o          1 GBM      -0.577100
      5 Cl1         -8.0490    -1.8270     2.9830 cl         1 GBM      -0.198000
      6 S2           4.1800     2.5810     1.1860 sy         1 GBM       1.201300
      7 O7          -6.6600     0.5900    -2.2880 os         1 GBM      -0.322100
      8 N8           6.1580    -0.6590     0.4170 ns         1 GBM      -0.506900
      9 N9           5.1650     1.2320     1.1300 ns         1 GBM      -0.610300
     10 N10         -3.9730     0.9750     0.9130 ns         1 GBM      -0.506900
     11 C11          6.5080    -1.7670    -0.4780 c6         1 GBM       0.121700
     12 C12          7.0250    -2.9740     0.3470 c6         1 GBM      -0.092400
     13 C13          7.5930    -1.3250    -1.4960 c6         1 GBM      -0.092400
     14 C14          7.4350    -4.1530    -0.5710 c6         1 GBM      -0.071400
     15 C15          8.0090    -2.4930    -2.4250 c6         1 GBM      -0.071400
     16 C16          8.4990    -3.7110    -1.6050 c6         1 GBM      -0.078400
     17 C17          5.2790     0.3450     0.1230 c          1 GBM       0.678100
     18 C18          2.4980     1.9360     1.0930 ca         1 GBM      -0.289500
     19 C19         -0.1310     0.9120     0.9560 ca         1 GBM      -0.022300
     20 C20         -1.5500     0.3670     0.8810 c3         1 GBM      -0.066100
     21 C21          1.8320     1.8570    -0.1480 ca         1 GBM       0.000500
     22 C22          1.8460     1.4980     2.2640 ca         1 GBM       0.000500
     23 C23          0.5230     1.3480    -0.2110 ca         1 GBM      -0.130500
     24 C24          0.5370     0.9910     2.1920 ca         1 GBM      -0.130500
     25 C25         -2.6010     1.4910     0.9620 c3         1 GBM       0.105000
     26 C26         -4.6250     0.5740    -0.2350 c          1 GBM       0.626700
     27 C27         -6.0130     0.0010    -0.0320 ca         1 GBM      -0.185600
     28 C28         -6.9760     0.0070    -1.0750 ca         1 GBM       0.187100
     29 C29         -6.3660    -0.5700     1.2180 ca         1 GBM      -0.046000
     30 C30         -8.2580    -0.5490    -0.8510 ca         1 GBM      -0.200000
     31 C31         -7.6410    -1.1180     1.4250 ca         1 GBM       0.072000
     32 C32         -8.5870    -1.1090     0.3940 ca         1 GBM      -0.047000
     33 C33         -7.5790     0.6430    -3.3940 c3         1 GBM       0.146900
     34 H1           6.6090    -0.6200     1.3200 hn         1 GBM       0.314500
     35 H2           5.6750     1.1080     1.9860 hn         1 GBM       0.340500
     36 H3          -4.4970     0.9220     1.7770 hn         1 GBM       0.317500
     37 H4           5.6040    -2.0740    -1.0260 h1         1 GBM       0.075700
     38 H5           7.8850    -2.6700     0.9600 hc         1 GBM       0.047950
     39 H6           6.2460    -3.3070     1.0460 hc         1 GBM       0.047950
     40 H7           7.2170    -0.4910    -2.1040 hc         1 GBM       0.047950
     41 H8           8.4760    -0.9470    -0.9620 hc         1 GBM       0.047950
     42 H9           7.8270    -4.9810     0.0360 hc         1 GBM       0.044200
     43 H10          6.5500    -4.5410    -1.0940 hc         1 GBM       0.044200
     44 H11          7.1560    -2.7880    -3.0530 hc         1 GBM       0.044200
     45 H12          8.8000    -2.1620    -3.1110 hc         1 GBM       0.044200
     46 H13          9.4350    -3.4560    -1.0870 hc         1 GBM       0.041700
     47 H14          8.7340    -4.5460    -2.2800 hc         1 GBM       0.041700
     48 H15         -1.6870    -0.1920    -0.0520 hc         1 GBM       0.058700
     49 H16         -1.7250    -0.3470     1.6950 hc         1 GBM       0.058700
     50 H17          2.3220     2.1830    -1.0640 ha         1 GBM       0.137000
     51 H18          2.3460     1.5480     3.2300 ha         1 GBM       0.137000
     52 H19          0.0170     1.2920    -1.1720 ha         1 GBM       0.120000
     53 H20          0.0420     0.6590     3.1010 ha         1 GBM       0.120000
     54 H21         -2.4510     2.1970     0.1330 h1         1 GBM       0.061200
     55 H22         -2.4680     2.0450     1.9010 h1         1 GBM       0.061200
     56 H23         -5.6530    -0.6200     2.0360 ha         1 GBM       0.133000
     57 H24         -9.0170    -0.5530    -1.6270 ha         1 GBM       0.126000
     58 H25         -9.5740    -1.5340     0.5590 ha         1 GBM       0.130000
     59 H26         -7.8690    -0.3680    -3.7090 h1         1 GBM       0.045700
     60 H27         -8.4830     1.2030    -3.1250 h1         1 GBM       0.045700
     61 H28         -7.1120     1.1440    -4.2510 h1         1 GBM       0.045700
@<TRIPOS>BOND
     1     1    17 2   
     2     2     6 2   
     3     3     6 2   
     4     4    26 2   
     5     5    31 1   
     6     6     9 1   
     7     6    18 1   
     8     7    28 1   
     9     7    33 1   
    10     8    11 1   
    11     8    17 1   
    12     8    34 1   
    13     9    17 1   
    14     9    35 1   
    15    10    25 1   
    16    10    26 1   
    17    10    36 1   
    18    11    12 1   
    19    11    13 1   
    20    11    37 1   
    21    12    14 1   
    22    12    38 1   
    23    12    39 1   
    24    13    15 1   
    25    13    40 1   
    26    13    41 1   
    27    14    16 1   
    28    14    42 1   
    29    14    43 1   
    30    15    16 1   
    31    15    44 1   
    32    15    45 1   
    33    16    46 1   
    34    16    47 1   
    35    18    21 ar  
    36    18    22 ar  
    37    19    20 1   
    38    19    23 ar  
    39    19    24 ar  
    40    20    25 1   
    41    20    48 1   
    42    20    49 1   
    43    21    23 ar  
    44    21    50 1   
    45    22    24 ar  
    46    22    51 1   
    47    23    52 1   
    48    24    53 1   
    49    25    54 1   
    50    25    55 1   
    51    26    27 1   
    52    27    28 ar  
    53    27    29 ar  
    54    28    30 ar  
    55    29    31 ar  
    56    29    56 1   
    57    30    32 ar  
    58    30    57 1   
    59    31    32 ar  
    60    32    58 1   
    61    33    59 1   
    62    33    60 1   
    63    33    61 1   
@<TRIPOS>SUBSTRUCTURE
     1 GBM         1 TEMP              0 ****  ****    0 ROOT
