@<TRIPOS>MOLECULE
GBM
   61    63     1     0     0
SMALL
abcg2


@<TRIPOS>ATOM
      1 O3           4.5910     0.0930    -0.9580 o          1 GBM      -0.610100
      2 O4           4.0000     3.6220     1.3950 o          1 GBM      -0.532500
      3 O5           4.2310     3.0710    -1.0390 o          1 GBM      -0.532500
      4 O6          -4.2110     0.6120    -1.6950 o          1 GBM      -0.577100
      5 CL1         -7.3060    -3.7960     0.9970 cl         1 GBM      -0.198000
      6 S2           3.9480     2.6500     0.3170 sy         1 GBM       1.201300
      7 O7          -6.9700     1.6280    -1.1760 os         1 GBM      -0.322100
      8 N8           6.2000    -0.4750     0.5450 ns         1 GBM      -0.506900
      9 N9           5.0390     1.4860     0.7800 ns         1 GBM      -0.610300
     10 N10         -3.9050     0.5910     0.5470 ns         1 GBM      -0.506900
     11 C11          6.6020    -1.7170    -0.0960 c6         1 GBM       0.121700
     12 C12          7.2750    -2.6170     0.9370 c6         1 GBM      -0.092400
     13 C13          7.5240    -1.4800    -1.2920 c6         1 GBM      -0.092400
     14 C14          7.7160    -3.9360     0.3120 c6         1 GBM      -0.071400
     15 C15          7.9560    -2.8020    -1.9180 c6         1 GBM      -0.071400
     16 C16          8.6260    -3.7090    -0.8910 c6         1 GBM      -0.078400
     17 C17          5.2490     0.3230     0.0400 c          1 GBM       0.678100
     18 C18          2.3740     1.8510     0.3510 ca         1 GBM      -0.289500
     19 C19         -0.1210     0.6360     0.4390 ca         1 GBM      -0.022300
     20 C20         -1.4930     0.0320     0.4810 c3         1 GBM      -0.066100
     21 C21          1.7300     1.5360    -0.8350 ca         1 GBM       0.000500
     22 C22          1.7940     1.5730     1.5830 ca         1 GBM       0.000500
     23 C23          0.4820     0.9350    -0.7800 ca         1 GBM      -0.130500
     24 C24          0.5520     0.9630     1.6160 ca         1 GBM      -0.130500
     25 C25         -2.5640     1.1270     0.5400 c3         1 GBM       0.105000
     26 C26         -4.6080     0.3530    -0.5700 c          1 GBM       0.626700
     27 C27         -5.9440    -0.2860    -0.3350 ca         1 GBM      -0.185600
     28 C28         -7.1180     0.3840    -0.7020 ca         1 GBM       0.187100
     29 C29         -6.0070    -1.5650     0.1970 ca         1 GBM      -0.046000
     30 C30         -8.3440    -0.2530    -0.5320 ca         1 GBM      -0.200000
     31 C31         -7.2360    -2.1900     0.3480 ca         1 GBM       0.072000
     32 C32         -8.4020    -1.5400    -0.0130 ca         1 GBM      -0.047000
     33 C33         -8.1280     2.3770    -1.5010 c3         1 GBM       0.146900
     34 H1           6.7550    -0.1510     1.3230 hn         1 GBM       0.314500
     35 H2           5.4680     1.6270     1.6870 hn         1 GBM       0.340500
     36 H3          -4.3130     0.3550     1.4370 hn         1 GBM       0.317500
     37 H4           5.6940    -2.2170    -0.4470 h1         1 GBM       0.075700
     38 H5           8.1520    -2.0990     1.3450 hc         1 GBM       0.047950
     39 H6           6.5940    -2.7970     1.7710 hc         1 GBM       0.047950
     40 H7           7.0170    -0.8570    -2.0330 hc         1 GBM       0.047950
     41 H8           8.4050    -0.9230    -0.9530 hc         1 GBM       0.047950
     42 H9           8.2220    -4.5460     1.0640 hc         1 GBM       0.044200
     43 H10          6.8330    -4.5020    -0.0040 hc         1 GBM       0.044200
     44 H11          7.0780    -3.3110    -2.3300 hc         1 GBM       0.044200
     45 H12          8.6270    -2.6140    -2.7590 hc         1 GBM       0.044200
     46 H13          9.5630    -3.2490    -0.5580 hc         1 GBM       0.041700
     47 H14          8.8940    -4.6660    -1.3470 hc         1 GBM       0.041700
     48 H15         -1.6580    -0.5830    -0.4060 hc         1 GBM       0.058700
     49 H16         -1.5950    -0.6200     1.3520 hc         1 GBM       0.058700
     50 H17          2.1860     1.7520    -1.7900 ha         1 GBM       0.137000
     51 H18          2.2960     1.8200     2.5090 ha         1 GBM       0.137000
     52 H19         -0.0250     0.6900    -1.7050 ha         1 GBM       0.120000
     53 H20          0.0990     0.7380     2.5740 ha         1 GBM       0.120000
     54 H21         -2.4550     1.8000    -0.3100 h1         1 GBM       0.061200
     55 H22         -2.4370     1.7240     1.4440 h1         1 GBM       0.061200
     56 H23         -5.0960    -2.0780     0.4800 ha         1 GBM       0.133000
     57 H24         -9.2730     0.2350    -0.7940 ha         1 GBM       0.126000
     58 H25         -9.3620    -2.0210     0.1090 ha         1 GBM       0.130000
     59 H26         -8.7080     1.9040    -2.2970 h1         1 GBM       0.045700
     60 H27         -8.7720     2.5250    -0.6310 h1         1 GBM       0.045700
     61 H28         -7.7780     3.3440    -1.8490 h1         1 GBM       0.045700
@<TRIPOS>BOND
     1     1    17 2   
     2     2     6 2   
     3     3     6 2   
     4     4    26 2   
     5     5    31 1   
     6     6     9 1   
     7     6    18 1   
     8     7    28 1   
     9     7    33 1   
    10     8    11 1   
    11     8    17 1   
    12     8    34 1   
    13     9    17 1   
    14     9    35 1   
    15    10    25 1   
    16    10    26 1   
    17    10    36 1   
    18    11    12 1   
    19    11    13 1   
    20    11    37 1   
    21    12    14 1   
    22    12    38 1   
    23    12    39 1   
    24    13    15 1   
    25    13    40 1   
    26    13    41 1   
    27    14    16 1   
    28    14    42 1   
    29    14    43 1   
    30    15    16 1   
    31    15    44 1   
    32    15    45 1   
    33    16    46 1   
    34    16    47 1   
    35    18    21 ar  
    36    18    22 ar  
    37    19    20 1   
    38    19    23 ar  
    39    19    24 ar  
    40    20    25 1   
    41    20    48 1   
    42    20    49 1   
    43    21    23 ar  
    44    21    50 1   
    45    22    24 ar  
    46    22    51 1   
    47    23    52 1   
    48    24    53 1   
    49    25    54 1   
    50    25    55 1   
    51    26    27 1   
    52    27    28 ar  
    53    27    29 ar  
    54    28    30 ar  
    55    29    31 ar  
    56    29    56 1   
    57    30    32 ar  
    58    30    57 1   
    59    31    32 ar  
    60    32    58 1   
    61    33    59 1   
    62    33    60 1   
    63    33    61 1   
@<TRIPOS>SUBSTRUCTURE
     1 GBM         1 TEMP              0 ****  ****    0 ROOT
