@<TRIPOS>MOLECULE
GBN
   28    28     1     0     0
SMALL
No Charge or Current Charge


@<TRIPOS>ATOM
      1 N1           0.8460     2.9110     0.0530 n8         1 GBN      -0.995200
      2 C2           1.0710     1.6590    -0.7010 c3         1 GBN       0.147800
      3 C3          -1.3190     0.8370    -0.4510 c3         1 GBN      -0.205400
      4 C1R          0.1960     0.4180    -0.2590 c6         1 GBN      -0.004000
      5 C2R          0.5480    -0.8110    -1.1690 c6         1 GBN      -0.069400
      6 C3R          1.9940    -1.3380    -0.9600 c6         1 GBN      -0.066900
      7 C4R          2.2520    -1.6900     0.5240 c6         1 GBN      -0.070400
      8 C5R          1.9320    -0.4950     1.4550 c6         1 GBN      -0.066900
      9 C6R          0.4840     0.0210     1.2310 c6         1 GBN      -0.069400
     10 C           -2.3480    -0.2890    -0.2100 c          1 GBN       0.717000
     11 OA          -2.7900    -0.4410     0.9200 o          1 GBN      -0.742500
     12 OB          -2.7010    -0.9670    -1.1630 o          1 GBN      -0.742500
     13 HN11         1.3450     3.6760    -0.4140 hn         1 GBN       0.378500
     14 HN12        -0.1430     3.1680    -0.0370 hn         1 GBN       0.378500
     15 H21          0.8620     1.8730    -1.7580 h1         1 GBN       0.009200
     16 H22          2.1380     1.4220    -0.6230 h1         1 GBN       0.009200
     17 H31         -1.5170     1.6360     0.2740 hc         1 GBN       0.021200
     18 H32         -1.4140     1.1740    -1.4910 hc         1 GBN       0.021200
     19 H2R1        -0.1390    -1.6420    -0.9620 hc         1 GBN       0.058700
     20 H2R2         0.4000    -0.5530    -2.2260 hc         1 GBN       0.058700
     21 H3R1         2.1500    -2.2310    -1.5800 hc         1 GBN       0.016200
     22 H3R2         2.7280    -0.5990    -1.3060 hc         1 GBN       0.016200
     23 H4R1         1.6340    -2.5530     0.8100 hc         1 GBN       0.025700
     24 H4R2         3.2980    -1.9980     0.6580 hc         1 GBN       0.025700
     25 H5R1         2.0530    -0.8040     2.5020 hc         1 GBN       0.016200
     26 H5R2         2.6570     0.3130     1.2900 hc         1 GBN       0.016200
     27 H6R1         0.2920     0.8720     1.8980 hc         1 GBN       0.058700
     28 H6R2        -0.2090    -0.7690     1.5470 hc         1 GBN       0.058700
@<TRIPOS>BOND
     1     1     2 1   
     2     1    13 1   
     3     1    14 1   
     4     2     4 1   
     5     2    15 1   
     6     2    16 1   
     7     3     4 1   
     8     3    10 1   
     9     3    17 1   
    10     3    18 1   
    11     4     5 1   
    12     4     9 1   
    13     5     6 1   
    14     5    19 1   
    15     5    20 1   
    16     6     7 1   
    17     6    21 1   
    18     6    22 1   
    19     7     8 1   
    20     7    23 1   
    21     7    24 1   
    22     8     9 1   
    23     8    25 1   
    24     8    26 1   
    25     9    27 1   
    26     9    28 1   
    27    10    11 1   
    28    10    12 1   
@<TRIPOS>SUBSTRUCTURE
     1 GBN         1 TEMP              0 ****  ****    0 ROOT
