@<TRIPOS>MOLECULE
GBN
   28    28     1     0     0
SMALL
bcc


@<TRIPOS>ATOM
      1 N1           0.8570     2.7820     0.2330 n8         1 GBN      -0.884800
      2 C2           1.0270     1.6360    -0.6500 c3         1 GBN       0.147800
      3 C3          -1.2820     0.7900    -0.3310 c3         1 GBN      -0.205400
      4 C1R          0.2000     0.4020    -0.2340 c6         1 GBN      -0.004000
      5 C2R          0.5250    -0.7330    -1.2210 c6         1 GBN      -0.069400
      6 C3R          1.9420    -1.2870    -1.0870 c6         1 GBN      -0.066900
      7 C4R          2.2430    -1.7070     0.3470 c6         1 GBN      -0.070400
      8 C5R          1.9880    -0.5620     1.3220 c6         1 GBN      -0.066900
      9 C6R          0.5620    -0.0330     1.1920 c6         1 GBN      -0.069400
     10 C           -2.4120    -0.2200    -0.0290 c          1 GBN       0.927600
     11 OA          -3.5630     0.2670    -0.0920 o          1 GBN      -0.847800
     12 OB          -2.1460    -1.4060     0.2500 o          1 GBN      -0.847800
     13 HN11         1.5310     3.4930    -0.0180 hn         1 GBN       0.323300
     14 HN12        -0.0480     3.2060     0.0770 hn         1 GBN       0.323300
     15 H21          0.7780     1.8640    -1.6990 h1         1 GBN       0.009200
     16 H22          2.0890     1.3860    -0.6440 h1         1 GBN       0.009200
     17 H31         -1.4700     1.6420     0.3330 hc         1 GBN       0.021200
     18 H32         -1.4690     1.1740    -1.3430 hc         1 GBN       0.021200
     19 H2R1        -0.1870    -1.5420    -1.0540 hc         1 GBN       0.058700
     20 H2R2         0.3570    -0.3800    -2.2460 hc         1 GBN       0.058700
     21 H3R1         2.0650    -2.1380    -1.7630 hc         1 GBN       0.016200
     22 H3R2         2.6790    -0.5440    -1.4090 hc         1 GBN       0.016200
     23 H4R1         1.6020    -2.5540     0.6190 hc         1 GBN       0.025700
     24 H4R2         3.2740    -2.0600     0.4320 hc         1 GBN       0.025700
     25 H5R1         2.1600    -0.8990     2.3490 hc         1 GBN       0.016200
     26 H5R2         2.7140     0.2390     1.1460 hc         1 GBN       0.016200
     27 H6R1         0.4120     0.8050     1.8770 hc         1 GBN       0.058700
     28 H6R2        -0.1290    -0.8210     1.4950 hc         1 GBN       0.058700
@<TRIPOS>BOND
     1     1     2 1   
     2     1    13 1   
     3     1    14 1   
     4     2     4 1   
     5     2    15 1   
     6     2    16 1   
     7     3     4 1   
     8     3    10 1   
     9     3    17 1   
    10     3    18 1   
    11     4     5 1   
    12     4     9 1   
    13     5     6 1   
    14     5    19 1   
    15     5    20 1   
    16     6     7 1   
    17     6    21 1   
    18     6    22 1   
    19     7     8 1   
    20     7    23 1   
    21     7    24 1   
    22     8     9 1   
    23     8    25 1   
    24     8    26 1   
    25     9    27 1   
    26     9    28 1   
    27    10    11 1   
    28    10    12 1   
@<TRIPOS>SUBSTRUCTURE
     1 GBN         1 TEMP              0 ****  ****    0 ROOT
