@<TRIPOS>MOLECULE
GBQ
   58    61     1     0     0
SMALL
abcg2


@<TRIPOS>ATOM
      1 C13          4.6460    -1.3870    35.1210 c3         1 GBQ       0.347800
      2 C21          5.5720    -1.3600    26.9020 c6         1 GBQ       0.126800
      3 C22          4.7200    -0.1560    27.2300 c6         1 GBQ       0.154600
      4 C24          7.0400    -3.0420    27.7780 c3         1 GBQ       0.136500
      5 C01          5.1950     2.1690    30.9900 c3         1 GBQ      -0.086100
      6 C02          4.2680     1.0000    30.7010 c3         1 GBQ       0.213600
      7 C03          3.6300     0.4510    31.9600 ca         1 GBQ      -0.132300
      8 C04          4.4060    -0.2130    32.9130 ca         1 GBQ      -0.018500
      9 C05          3.8240    -0.6760    34.0820 ca         1 GBQ      -0.201300
     10 C06          2.4610    -0.5050    34.3210 ca         1 GBQ      -0.009000
     11 C07          1.6940     0.1450    33.3690 ca         1 GBQ      -0.201300
     12 C08          2.2740     0.6210    32.1930 ca         1 GBQ      -0.018500
     13 C09          0.2160     0.3240    33.5690 c3         1 GBQ       0.347800
     14 C18          4.3060    -0.9950    29.3950 c6         1 GBQ       0.380300
     15 C19          5.2040    -2.2180    29.1260 c6         1 GBQ       0.216800
     16 C25          8.2760    -2.6300    27.0450 cc         1 GBQ       0.617200
     17 C27         10.1570    -1.7050    26.4880 c          1 GBQ       0.649400
     18 C31          5.8010    -2.7140    30.4230 ca         1 GBQ      -0.123300
     19 C32          5.1370    -3.7030    31.1440 ca         1 GBQ      -0.067500
     20 C33          5.6240    -4.1530    32.3670 ca         1 GBQ      -0.155000
     21 C34          6.7950    -3.5990    32.8450 ca         1 GBQ       0.174000
     22 C35          7.4870    -2.6170    32.1590 ca         1 GBQ      -0.155000
     23 C36          6.9770    -2.1740    30.9460 ca         1 GBQ      -0.067500
     24 F10         -0.1800     1.5900    33.3070 f          1 GBQ      -0.109000
     25 F11         -0.1800     0.0420    34.8240 f          1 GBQ      -0.109000
     26 F12         -0.5030    -0.4760    32.7440 f          1 GBQ      -0.109000
     27 F14          4.3630    -2.7120    35.1720 f          1 GBQ      -0.109000
     28 F15          5.9680    -1.2780    34.9040 f          1 GBQ      -0.109000
     29 F16          4.4110    -0.9060    36.3650 f          1 GBQ      -0.109000
     30 F37          7.2860    -4.0350    34.0350 f          1 GBQ      -0.177000
     31 N20          6.2100    -1.8920    28.1100 n3         1 GBQ      -0.682600
     32 N26          9.1330    -1.7060    27.4250 nd         1 GBQ      -0.648100
     33 N29          9.8990    -2.7440    25.5930 ns         1 GBQ      -0.462800
     34 N30          8.6410    -3.2200    25.8990 na         1 GBQ      -0.692400
     35 O17          5.0560    -0.0070    30.0540 os         1 GBQ      -0.457000
     36 O23          3.7280    -0.4960    28.2090 os         1 GBQ      -0.479000
     37 O28         11.1290    -0.9590    26.4310 o          1 GBQ      -0.515000
     38 H1           4.9470    -2.1330    26.4230 h1         1 GBQ       0.046200
     39 H2           6.3460    -1.0680    26.1900 h1         1 GBQ       0.046200
     40 H3           5.3390     0.6650    27.6000 h1         1 GBQ       0.066200
     41 H4           4.1750     0.1790    26.3490 h1         1 GBQ       0.066200
     42 H5           6.4980    -3.7870    27.1760 h1         1 GBQ       0.060700
     43 H6           7.3560    -3.5350    28.6980 h1         1 GBQ       0.060700
     44 H7           4.6450     2.9690    31.4860 hc         1 GBQ       0.052367
     45 H8           6.0130     1.8540    31.6400 hc         1 GBQ       0.052367
     46 H9           5.6110     2.5520    30.0580 hc         1 GBQ       0.052367
     47 H10          3.4770     1.3250    30.0210 h1         1 GBQ       0.056700
     48 H11          5.4600    -0.3660    32.7310 ha         1 GBQ       0.143000
     49 H12          2.0140    -0.8710    35.2340 ha         1 GBQ       0.148000
     50 H13          1.6640     1.1280    31.4560 ha         1 GBQ       0.143000
     51 H14          3.4630    -1.3160    30.0120 h2         1 GBQ       0.072700
     52 H15          4.5200    -2.9960    28.7500 h1         1 GBQ       0.040700
     53 H16          4.2250    -4.1330    30.7480 ha         1 GBQ       0.133500
     54 H17          5.1110    -4.9170    32.9350 ha         1 GBQ       0.139000
     55 H18          8.3980    -2.2060    32.5720 ha         1 GBQ       0.139000
     56 H19          7.5000    -1.4050    30.3960 ha         1 GBQ       0.133500
     57 H21          8.3320    -4.1150    25.5450 hn         1 GBQ       0.533000
     58 H22         10.1720    -2.7190    24.6200 hn         1 GBQ       0.454000
@<TRIPOS>BOND
     1     1     9 1   
     2     1    27 1   
     3     1    28 1   
     4     1    29 1   
     5     2     3 1   
     6     2    31 1   
     7     2    38 1   
     8     2    39 1   
     9     3    36 1   
    10     3    40 1   
    11     3    41 1   
    12     4    16 1   
    13     4    31 1   
    14     4    42 1   
    15     4    43 1   
    16     5     6 1   
    17     5    44 1   
    18     5    45 1   
    19     5    46 1   
    20     6     7 1   
    21     6    35 1   
    22     6    47 1   
    23     7     8 ar  
    24     7    12 ar  
    25     8     9 ar  
    26     8    48 1   
    27     9    10 ar  
    28    10    11 ar  
    29    10    49 1   
    30    11    12 ar  
    31    11    13 1   
    32    12    50 1   
    33    13    24 1   
    34    13    25 1   
    35    13    26 1   
    36    14    15 1   
    37    14    35 1   
    38    14    36 1   
    39    14    51 1   
    40    15    18 1   
    41    15    31 1   
    42    15    52 1   
    43    16    32 2   
    44    16    34 1   
    45    17    32 1   
    46    17    33 1   
    47    17    37 2   
    48    18    19 ar  
    49    18    23 ar  
    50    19    20 ar  
    51    19    53 1   
    52    20    21 ar  
    53    20    54 1   
    54    21    22 ar  
    55    21    30 1   
    56    22    23 ar  
    57    22    55 1   
    58    23    56 1   
    59    33    34 1   
    60    33    58 1   
    61    34    57 1   
@<TRIPOS>SUBSTRUCTURE
     1 GBQ         1 TEMP              0 ****  ****    0 ROOT
