@<TRIPOS>MOLECULE
GBQ
   58    61     1     0     0
SMALL
No Charge or Current Charge


@<TRIPOS>ATOM
      1 C13          4.3870    -1.5380    35.1120 c3         1 GBQ       0.347800
      2 C21          5.6630    -1.3400    26.9810 c6         1 GBQ       0.126800
      3 C22          4.7620    -0.1150    27.3130 c6         1 GBQ       0.154600
      4 C24          7.2170    -3.0740    27.8970 c3         1 GBQ       0.136500
      5 C01          5.1780     2.3490    31.1930 c3         1 GBQ      -0.086100
      6 C02          4.2470     1.1900    30.7950 c3         1 GBQ       0.213600
      7 C03          3.5350     0.5790    32.0020 ca         1 GBQ      -0.132300
      8 C04          4.2620    -0.1440    32.9670 ca         1 GBQ      -0.018500
      9 C05          3.6080    -0.7330    34.0680 ca         1 GBQ      -0.201300
     10 C06          2.2100    -0.5950    34.1900 ca         1 GBQ      -0.009000
     11 C07          1.4690     0.1350    33.2360 ca         1 GBQ      -0.201300
     12 C08          2.1410     0.7130    32.1390 ca         1 GBQ      -0.018500
     13 C09         -0.0510     0.2680    33.3730 c3         1 GBQ       0.347800
     14 C18          4.3790    -0.9220    29.5580 c6         1 GBQ       0.380300
     15 C19          5.3320    -2.1520    29.2890 c6         1 GBQ       0.216800
     16 C25          8.3460    -2.8560    26.8930 cc         1 GBQ       0.617200
     17 C27         10.3860    -2.4540    25.9550 c          1 GBQ       0.649400
     18 C31          5.9690    -2.6310    30.6050 ca         1 GBQ      -0.123300
     19 C32          5.4350    -3.7470    31.2820 ca         1 GBQ      -0.067500
     20 C33          6.0030    -4.1790    32.4940 ca         1 GBQ      -0.155000
     21 C34          7.1020    -3.4960    33.0340 ca         1 GBQ       0.174000
     22 C35          7.6400    -2.3840    32.3710 ca         1 GBQ      -0.155000
     23 C36          7.0760    -1.9520    31.1580 ca         1 GBQ      -0.067500
     24 F10         -0.5200     1.4130    32.8250 f          1 GBQ      -0.109000
     25 F11         -0.4530     0.2690    34.6650 f          1 GBQ      -0.109000
     26 F12         -0.6900    -0.7530    32.7610 f          1 GBQ      -0.109000
     27 F14          4.2420    -2.8680    34.9140 f          1 GBQ      -0.109000
     28 F15          5.7140    -1.2780    35.0940 f          1 GBQ      -0.109000
     29 F16          3.9610    -1.2780    36.3690 f          1 GBQ      -0.109000
     30 F37          7.6440    -3.9100    34.2000 f          1 GBQ      -0.177000
     31 N20          6.3390    -1.8900    28.1980 n3         1 GBQ      -0.682600
     32 N26          9.6050    -2.4870    27.1190 nd         1 GBQ      -0.648100
     33 N29          9.5960    -2.8850    24.9330 ns         1 GBQ      -0.462800
     34 N30          8.3300    -3.0910    25.5320 na         1 GBQ      -0.692400
     35 O17          5.0680     0.1840    30.1840 os         1 GBQ      -0.457000
     36 O23          3.7830    -0.4620    28.3230 os         1 GBQ      -0.479000
     37 O28         11.5360    -2.0660    25.8780 o          1 GBQ      -0.515000
     38 H1           5.0400    -2.1130    26.5080 h1         1 GBQ       0.046200
     39 H2           6.4070    -1.0250    26.2360 h1         1 GBQ       0.046200
     40 H3           5.3830     0.7190    27.6720 h1         1 GBQ       0.066200
     41 H4           4.2400     0.2180    26.4060 h1         1 GBQ       0.066200
     42 H5           6.6010    -3.9040    27.5280 h1         1 GBQ       0.060700
     43 H6           7.6910    -3.4300    28.8200 h1         1 GBQ       0.060700
     44 H7           4.6070     3.1410    31.6900 hc         1 GBQ       0.052367
     45 H8           5.9630     2.0070    31.8780 hc         1 GBQ       0.052367
     46 H9           5.6560     2.7770    30.3040 hc         1 GBQ       0.052367
     47 H10          3.5080     1.5700    30.0760 h1         1 GBQ       0.056700
     48 H11          5.3380    -0.2570    32.8460 ha         1 GBQ       0.143000
     49 H12          1.6970    -1.0650    35.0290 ha         1 GBQ       0.148000
     50 H13          1.5800     1.2630    31.3850 ha         1 GBQ       0.143000
     51 H14          3.5810    -1.2730    30.2290 h2         1 GBQ       0.072700
     52 H15          4.6760    -2.9640    28.9420 h1         1 GBQ       0.040700
     53 H16          4.5780    -4.2800    30.8730 ha         1 GBQ       0.133500
     54 H17          5.5900    -5.0380    33.0160 ha         1 GBQ       0.139000
     55 H18          8.4910    -1.8580    32.7960 ha         1 GBQ       0.139000
     56 H19          7.4930    -1.0860    30.6460 ha         1 GBQ       0.133500
     57 H21          7.6150    -3.5870    24.9910 hn         1 GBQ       0.533000
     58 H22          9.7500    -2.4660    24.0090 hn         1 GBQ       0.454000
@<TRIPOS>BOND
     1     1     9 1   
     2     1    27 1   
     3     1    28 1   
     4     1    29 1   
     5     2     3 1   
     6     2    31 1   
     7     2    38 1   
     8     2    39 1   
     9     3    36 1   
    10     3    40 1   
    11     3    41 1   
    12     4    16 1   
    13     4    31 1   
    14     4    42 1   
    15     4    43 1   
    16     5     6 1   
    17     5    44 1   
    18     5    45 1   
    19     5    46 1   
    20     6     7 1   
    21     6    35 1   
    22     6    47 1   
    23     7     8 ar  
    24     7    12 ar  
    25     8     9 ar  
    26     8    48 1   
    27     9    10 ar  
    28    10    11 ar  
    29    10    49 1   
    30    11    12 ar  
    31    11    13 1   
    32    12    50 1   
    33    13    24 1   
    34    13    25 1   
    35    13    26 1   
    36    14    15 1   
    37    14    35 1   
    38    14    36 1   
    39    14    51 1   
    40    15    18 1   
    41    15    31 1   
    42    15    52 1   
    43    16    32 2   
    44    16    34 1   
    45    17    32 1   
    46    17    33 1   
    47    17    37 2   
    48    18    19 ar  
    49    18    23 ar  
    50    19    20 ar  
    51    19    53 1   
    52    20    21 ar  
    53    20    54 1   
    54    21    22 ar  
    55    21    30 1   
    56    22    23 ar  
    57    22    55 1   
    58    23    56 1   
    59    33    34 1   
    60    33    58 1   
    61    34    57 1   
@<TRIPOS>SUBSTRUCTURE
     1 GBQ         1 TEMP              0 ****  ****    0 ROOT
