@<TRIPOS>MOLECULE
GBR
   45    47     1     0     0
SMALL
No Charge or Current Charge


@<TRIPOS>ATOM
      1 N1          -6.5680     2.5740     0.3390 ns         1 GBR      -0.460400
      2 C2          -5.6200     2.3370     1.2750 cc         1 GBR       0.693800
      3 N2          -5.6780     3.0980     2.3540 nv         1 GBR      -1.062200
      4 N3          -4.6610     1.4380     1.2330 nd         1 GBR      -0.672100
      5 C4          -4.6860     0.6800     0.0610 cd         1 GBR       0.101400
      6 C5          -5.6050     0.8460    -0.9410 cc         1 GBR       0.098500
      7 C6          -6.6630     1.8830    -0.8290 c          1 GBR       0.522500
      8 O6          -7.5320     2.1250    -1.6560 o          1 GBR      -0.557000
      9 N7          -5.3750    -0.0470    -1.9630 nc         1 GBR      -0.630000
     10 C8          -4.3090    -0.7570    -1.5770 cd         1 GBR       0.462400
     11 N9          -3.8520    -0.3420    -0.3280 na         1 GBR      -0.169500
     12 PA           1.2760    -2.1690    -1.7470 p5         1 GBR       1.447800
     13 PB           2.0410     0.1210    -0.6530 p5         1 GBR       1.516400
     14 BrB          1.0440     3.1850     0.1810 br         1 GBR      -0.444000
     15 PG           1.8370     0.6720     2.1490 p5         1 GBR       1.349500
     16 C1          -2.7240    -0.8860     0.4200 c5         1 GBR       0.309300
     17 O1A          0.3760    -1.7920    -2.8780 o          1 GBR      -0.869000
     18 O1B          1.8330     0.7840    -1.9820 o          1 GBR      -0.862000
     19 O1G          3.1220     1.3970     2.3690 o          1 GBR      -0.951500
     20 C7          -3.0970    -1.9300     1.5200 c5         1 GBR      -0.172400
     21 O2A          2.6710    -2.4350    -2.2090 o          1 GBR      -0.869000
     22 O2B          3.4980    -0.0410    -0.3460 o          1 GBR      -0.862000
     23 O2G          0.8740     1.1760     3.1730 o          1 GBR      -0.951500
     24 C3          -2.5910    -3.2600     0.9110 c5         1 GBR       0.117300
     25 O3          -2.3280    -4.2360     1.9200 oh         1 GBR      -0.686000
     26 O3A          1.1950    -1.2050    -0.5050 os         1 GBR      -0.697800
     27 C3B          1.1280     1.1510     0.5480 c3         1 GBR      -0.442700
     28 O3G          2.0060    -0.7950     2.3400 o          1 GBR      -0.951500
     29 C9          -1.3170    -2.7380     0.1950 c5         1 GBR       0.153300
     30 O4          -1.8450    -1.5830    -0.4890 os         1 GBR      -0.387000
     31 C10         -0.6810    -3.7480    -0.8080 c3         1 GBR       0.237600
     32 O5           0.7220    -3.4990    -1.0160 os         1 GBR      -0.540400
     33 HN1         -7.2360     3.3120     0.4880 hn         1 GBR       0.297500
     34 HN2         -6.5900     3.4470     2.6190 hn         1 GBR       0.484500
     35 HN2A        -5.0910     2.7820     3.1160 hn         1 GBR       0.484500
     36 H8          -3.8330    -1.5610    -2.1280 h5         1 GBR       0.109100
     37 H1          -2.2040    -0.0290     0.8660 h2         1 GBR       0.087700
     38 H2          -2.5810    -1.6900     2.4570 hc         1 GBR       0.050700
     39 H2'A        -4.1700    -1.9510     1.7390 hc         1 GBR       0.050700
     40 H3          -3.3080    -3.6510     0.1750 h1         1 GBR       0.039700
     41 HO3         -3.1800    -4.4120     2.3810 ho         1 GBR       0.476000
     42 H3B          0.0920     0.8020     0.5350 h1         1 GBR       0.046700
     43 H4          -0.5630    -2.4240     0.9300 h1         1 GBR       0.085700
     44 H5          -0.8000    -4.7600    -0.4000 h1         1 GBR       0.008200
     45 H5'A        -1.2310    -3.7190    -1.7570 h1         1 GBR       0.008200
@<TRIPOS>BOND
     1     1     2 1   
     2     1     7 1   
     3     1    33 1   
     4     2     3 1   
     5     2     4 2   
     6     3    34 1   
     7     3    35 1   
     8     4     5 1   
     9     5     6 2   
    10     5    11 1   
    11     6     7 1   
    12     6     9 1   
    13     7     8 2   
    14     9    10 2   
    15    10    11 1   
    16    10    36 1   
    17    11    16 1   
    18    12    17 1   
    19    12    21 1   
    20    12    26 1   
    21    12    32 1   
    22    13    18 1   
    23    13    22 1   
    24    13    26 1   
    25    13    27 1   
    26    14    27 1   
    27    15    19 1   
    28    15    23 1   
    29    15    27 1   
    30    15    28 1   
    31    16    20 1   
    32    16    30 1   
    33    16    37 1   
    34    20    24 1   
    35    20    38 1   
    36    20    39 1   
    37    24    25 1   
    38    24    29 1   
    39    24    40 1   
    40    25    41 1   
    41    27    42 1   
    42    29    30 1   
    43    29    31 1   
    44    29    43 1   
    45    31    32 1   
    46    31    44 1   
    47    31    45 1   
@<TRIPOS>SUBSTRUCTURE
     1 GBR         1 TEMP              0 ****  ****    0 ROOT
