@<TRIPOS>MOLECULE
GBR
   45    47     1     0     0
SMALL
abcg2


@<TRIPOS>ATOM
      1 N1          -7.7460     2.2050     0.1440 ns         1 GBR      -0.460400
      2 C2          -7.3850     1.6590     1.3420 cc         1 GBR       0.693800
      3 N2          -8.1140     2.0060     2.4130 nv         1 GBR      -1.062200
      4 N3          -6.3600     0.8550     1.4800 nd         1 GBR      -0.672100
      5 C4          -5.7030     0.6390     0.3310 cd         1 GBR       0.101400
      6 C5          -5.9840     1.1380    -0.9280 cc         1 GBR       0.098500
      7 C6          -7.1030     2.0060    -1.0850 c          1 GBR       0.522500
      8 O6          -7.5190     2.5440    -2.0970 o          1 GBR      -0.557000
      9 N7          -5.0750     0.6780    -1.8440 nc         1 GBR      -0.630000
     10 C8          -4.2710    -0.0760    -1.1580 cd         1 GBR       0.462400
     11 N9          -4.5990    -0.1370     0.1720 na         1 GBR      -0.169500
     12 PA           1.2620    -1.8590    -1.0570 p5         1 GBR       1.447800
     13 PB           3.8730    -0.8520    -0.2210 p5         1 GBR       1.516400
     14 BRB          3.3930     2.1030    -0.9970 br         1 GBR      -0.444000
     15 PG           5.8770     1.3280     0.8470 p5         1 GBR       1.349500
     16 C1          -3.9530    -0.9080     1.2290 c5         1 GBR       0.309300
     17 O1A          0.8440    -1.1790    -2.3250 o          1 GBR      -0.869000
     18 O1B          4.2710    -1.0310    -1.6550 o          1 GBR      -0.862000
     19 O1G          6.7430     0.7680    -0.2790 o          1 GBR      -0.951500
     20 C7          -4.4810    -2.3330     1.3370 c5         1 GBR      -0.172400
     21 O2A          1.7890    -3.2610    -1.1020 o          1 GBR      -0.869000
     22 O2B          4.3900    -1.7870     0.8340 o          1 GBR      -0.862000
     23 O2G          5.8720     2.8520     0.9430 o          1 GBR      -0.951500
     24 C3          -3.4960    -3.1200     0.4790 c5         1 GBR       0.117300
     25 O3          -3.3430    -4.4680     0.8240 oh         1 GBR      -0.686000
     26 O3A          2.1970    -0.8990    -0.1400 os         1 GBR      -0.697800
     27 C3B          4.1030     0.8640     0.3760 c3         1 GBR      -0.442700
     28 O3G          6.0480     0.6290     2.1950 o          1 GBR      -0.951500
     29 C9          -2.1980    -2.3660     0.7510 c5         1 GBR       0.153300
     30 O4          -2.5880    -1.0060     0.9370 os         1 GBR      -0.387000
     31 C10         -1.1870    -2.4730    -0.3630 c3         1 GBR       0.237600
     32 O5          -0.0090    -1.8030     0.0110 os         1 GBR      -0.540400
     33 HN1         -8.5480     2.8220     0.1210 hn         1 GBR       0.297500
     34 HN2         -9.0130     2.4440     2.3090 hn         1 GBR       0.484500
     35 HN2A        -7.9600     1.4960     3.2660 hn         1 GBR       0.484500
     36 H8          -3.4180    -0.5990    -1.5620 h5         1 GBR       0.109100
     37 H1          -4.1100    -0.3440     2.1510 h2         1 GBR       0.087700
     38 H2          -4.4010    -2.6690     2.3740 hc         1 GBR       0.050700
     39 H2'A        -5.5220    -2.4250     1.0280 hc         1 GBR       0.050700
     40 H3          -3.7640    -3.0190    -0.5830 h1         1 GBR       0.039700
     41 HO3         -4.1020    -4.9560     0.4900 ho         1 GBR       0.476000
     42 H3B          3.4560     1.0240     1.2430 h1         1 GBR       0.046700
     43 H4          -1.7580    -2.7480     1.6830 h1         1 GBR       0.085700
     44 H5          -1.0040    -3.5390    -0.5460 h1         1 GBR       0.008200
     45 H5'A        -1.6100    -2.0560    -1.2860 h1         1 GBR       0.008200
@<TRIPOS>BOND
     1     1     2 1   
     2     1     7 1   
     3     1    33 1   
     4     2     3 1   
     5     2     4 2   
     6     3    34 1   
     7     3    35 1   
     8     4     5 1   
     9     5     6 2   
    10     5    11 1   
    11     6     7 1   
    12     6     9 1   
    13     7     8 2   
    14     9    10 2   
    15    10    11 1   
    16    10    36 1   
    17    11    16 1   
    18    12    17 1   
    19    12    21 1   
    20    12    26 1   
    21    12    32 1   
    22    13    18 1   
    23    13    22 1   
    24    13    26 1   
    25    13    27 1   
    26    14    27 1   
    27    15    19 1   
    28    15    23 1   
    29    15    27 1   
    30    15    28 1   
    31    16    20 1   
    32    16    30 1   
    33    16    37 1   
    34    20    24 1   
    35    20    38 1   
    36    20    39 1   
    37    24    25 1   
    38    24    29 1   
    39    24    40 1   
    40    25    41 1   
    41    27    42 1   
    42    29    30 1   
    43    29    31 1   
    44    29    43 1   
    45    31    32 1   
    46    31    44 1   
    47    31    45 1   
@<TRIPOS>SUBSTRUCTURE
     1 GBR         1 TEMP              0 ****  ****    0 ROOT
