@<TRIPOS>MOLECULE
GBS
   21    21     1     0     0
SMALL
abcg2


@<TRIPOS>ATOM
      1 C2          -9.6420    -6.5470    20.2520 ca         1 GBS       0.274000
      2 C3         -10.3740    -5.4470    19.7790 ca         1 GBS      -0.179000
      3 C4          -9.8380    -4.5940    18.8310 ca         1 GBS      -0.066500
      4 C1          -8.3540    -6.7610    19.7440 ca         1 GBS      -0.179000
      5 N4          -8.7770    -9.1410    21.4610 n2         1 GBS      -0.876100
      6 C5          -8.5520    -4.7930    18.3190 ca         1 GBS      -0.145600
      7 C18         -9.8570    -8.5270    21.7990 c2         1 GBS       0.808100
      8 O           -8.7150    -2.9430    16.8350 o          1 GBS      -0.727000
      9 N2         -10.2590    -7.3430    21.2170 nu         1 GBS      -0.928200
     10 N3         -10.7820    -8.9920    22.7230 nv         1 GBS      -1.082200
     11 C           -7.8330    -5.8870    18.7970 ca         1 GBS      -0.066500
     12 O1          -6.7630    -4.0390    16.9460 o          1 GBS      -0.727000
     13 H1         -11.3720    -5.2710    20.1650 ha         1 GBS       0.104500
     14 H2         -10.4180    -3.7530    18.4750 ha         1 GBS       0.127500
     15 H3          -7.7820    -7.6040    20.0930 ha         1 GBS       0.104500
     16 H4          -8.6690    -9.9780    22.0290 hn         1 GBS       0.359400
     17 H5         -11.1740    -7.0220    21.4920 hn         1 GBS       0.476000
     18 H6         -10.4340    -9.7160    23.3330 hn         1 GBS       0.445000
     19 H7         -11.3220    -8.2960    23.2170 hn         1 GBS       0.445000
     20 H8          -6.8360    -6.0560    18.4130 ha         1 GBS       0.127500
     21 C6          -7.9620    -3.8480    17.2820 c          1 GBS       0.706600
@<TRIPOS>BOND
     1     1     2 ar  
     2     1     4 ar  
     3     1     9 1   
     4     2     3 ar  
     5     2    13 1   
     6     3     6 ar  
     7     3    14 1   
     8     4    11 ar  
     9     4    15 1   
    10     5     7 2   
    11     5    16 1   
    12     6    11 ar  
    13     6    21 1   
    14     7     9 1   
    15     7    10 1   
    16     8    21 1   
    17     9    17 1   
    18    10    18 1   
    19    10    19 1   
    20    11    20 1   
    21    12    21 1   
@<TRIPOS>SUBSTRUCTURE
     1 GBS         1 TEMP              0 ****  ****    0 ROOT
