@<TRIPOS>MOLECULE
GBS
   21    21     1     0     0
SMALL
No Charge or Current Charge


@<TRIPOS>ATOM
      1 C2          -9.5080    -6.4630    20.4450 ca         1 GBS       0.274000
      2 C3         -10.3920    -5.6230    19.7510 ca         1 GBS      -0.179000
      3 C4          -9.9290    -4.8150    18.6970 ca         1 GBS      -0.066500
      4 C1          -8.1500    -6.4760    20.0890 ca         1 GBS      -0.179000
      5 N4          -9.3670    -9.3460    20.9530 n2         1 GBS      -0.876100
      6 C5          -8.5650    -4.8290    18.3230 ca         1 GBS      -0.145600
      7 C18         -9.8240    -8.5140    21.7590 c2         1 GBS       0.808100
      8 O           -8.8610    -3.2420    16.5960 o          1 GBS      -0.727000
      9 N2          -9.9830    -7.2360    21.4980 nu         1 GBS      -0.928200
     10 N3         -10.6700    -8.7340    22.7300 nv         1 GBS      -1.082200
     11 C           -7.6800    -5.6710    19.0360 ca         1 GBS      -0.066500
     12 O1          -6.8730    -3.9970    16.8960 o          1 GBS      -0.727000
     13 H1         -11.4430    -5.5960    20.0240 ha         1 GBS       0.104500
     14 H2         -10.6370    -4.1760    18.1720 ha         1 GBS       0.127500
     15 H3          -7.4540    -7.1120    20.6300 ha         1 GBS       0.104500
     16 H4          -9.5780   -10.2810    21.3110 hn         1 GBS       0.359400
     17 H5         -10.9030    -6.9720    21.8160 hn         1 GBS       0.476000
     18 H6         -10.7060    -9.7070    23.0020 hn         1 GBS       0.445000
     19 H7         -10.5090    -8.1100    23.5090 hn         1 GBS       0.445000
     20 H8          -6.6230    -5.7030    18.7790 ha         1 GBS       0.127500
     21 C6          -8.0610    -3.9560    17.1850 c          1 GBS       0.706600
@<TRIPOS>BOND
     1     1     2 ar  
     2     1     4 ar  
     3     1     9 1   
     4     2     3 ar  
     5     2    13 1   
     6     3     6 ar  
     7     3    14 1   
     8     4    11 ar  
     9     4    15 1   
    10     5     7 2   
    11     5    16 1   
    12     6    11 ar  
    13     6    21 1   
    14     7     9 1   
    15     7    10 1   
    16     8    21 1   
    17     9    17 1   
    18    10    18 1   
    19    10    19 1   
    20    11    20 1   
    21    12    21 1   
@<TRIPOS>SUBSTRUCTURE
     1 GBS         1 TEMP              0 ****  ****    0 ROOT
