@<TRIPOS>MOLECULE
GBT
   72    76     1     0     0
SMALL
abcg2


@<TRIPOS>ATOM
      1 C01          3.3780     2.3080    -1.1780 c3         1 GBT      -0.157400
      2 C02          3.9970     0.9460    -1.3130 ca         1 GBT       0.449300
      3 N03          4.8330     0.8020    -2.3410 nb         1 GBT      -0.775000
      4 C04          5.4270    -0.3730    -2.5290 ca         1 GBT       0.639900
      5 N05          6.2390    -0.4840    -3.6170 nv         1 GBT      -1.058900
      6 C06          5.2040    -1.4720    -1.6920 ca         1 GBT      -0.335000
      7 C07          4.3280    -1.3150    -0.6320 ca         1 GBT       0.230100
      8 O08          4.0280    -2.3030     0.2190 os         1 GBT      -0.348100
      9 C09          4.2280    -3.6570    -0.1710 c3         1 GBT       0.168600
     10 C10          3.2520    -4.5170     0.6090 c3         1 GBT      -0.044200
     11 C11          1.8420    -4.0550     0.4060 c2         1 GBT      -0.212200
     12 C12          0.9200    -3.9440     1.3570 c2         1 GBT      -0.213200
     13 C13         -0.4660    -3.4240     1.1240 c3         1 GBT      -0.040200
     14 C14         -0.9330    -2.4860     2.2400 c3         1 GBT      -0.076400
     15 C15         -2.0740    -1.5840     1.8230 c3         1 GBT       0.162600
     16 O16         -1.5400    -0.5740     0.9630 os         1 GBT      -0.380100
     17 C17         -2.4460     0.2370     0.3550 ca         1 GBT       0.119100
     18 C18         -3.0440    -0.1670    -0.8320 ca         1 GBT      -0.101000
     19 C19         -3.9220     0.6750    -1.5010 ca         1 GBT      -0.089300
     20 C20         -4.5930     0.2190    -2.7700 c3         1 GBT       0.133900
     21 N21         -5.9260    -0.2850    -2.5130 na         1 GBT       0.127800
     22 C22         -7.0930     0.3530    -2.7160 cc         1 GBT      -0.172000
     23 C23         -8.0830    -0.4690    -2.2290 cd         1 GBT      -0.228000
     24 C24         -7.3890    -1.5880    -1.7420 cd         1 GBT       0.238900
     25 N25         -6.0860    -1.4610    -1.9160 nc         1 GBT      -0.528800
     26 C26         -4.1990     1.9280    -0.9660 ca         1 GBT      -0.102000
     27 C27         -3.6100     2.3230     0.2250 ca         1 GBT      -0.073000
     28 C28         -2.7370     1.4840     0.9080 ca         1 GBT      -0.120300
     29 C29         -2.1220     1.9190     2.2120 c3         1 GBT       0.141900
     30 N30         -0.7470     2.3600     2.0800 na         1 GBT       0.134800
     31 C31          0.3630     1.6250     2.2360 cc         1 GBT      -0.114000
     32 C32          1.4320     2.4700     2.0200 cd         1 GBT      -0.282600
     33 C33          0.8330     3.7120     1.7360 cd         1 GBT       0.288900
     34 N34         -0.4790     3.6260     1.7590 nc         1 GBT      -0.534800
     35 C35          2.8730     2.2080     2.1820 c          1 GBT       0.647700
     36 O36          3.5940     3.0380     2.7280 o          1 GBT      -0.611100
     37 N37          3.3510     1.0280     1.7400 ns         1 GBT      -0.501900
     38 C38          2.7640     0.1390     0.7450 c3         1 GBT       0.175300
     39 C39          3.7010    -0.0740    -0.4130 ca         1 GBT      -0.259300
     40 H011         2.3350     2.2650    -0.8650 hc         1 GBT       0.058700
     41 H013         3.9120     2.9100    -0.4400 hc         1 GBT       0.058700
     42 H012         3.4270     2.8350    -2.1280 hc         1 GBT       0.058700
     43 H051         6.5590     0.3770    -4.0300 hn         1 GBT       0.474000
     44 H052         6.9080    -1.2340    -3.6390 hn         1 GBT       0.474000
     45 H061         5.7140    -2.4080    -1.8800 ha         1 GBT       0.123000
     46 H092         4.0370    -3.7690    -1.2430 h1         1 GBT       0.041200
     47 H091         5.2620    -3.9610     0.0190 h1         1 GBT       0.041200
     48 H101         3.3810    -5.5420     0.2440 hc         1 GBT       0.058200
     49 H102         3.5060    -4.5320     1.6710 hc         1 GBT       0.058200
     50 H111         1.5740    -3.7770    -0.6120 ha         1 GBT       0.170000
     51 H121         1.1740    -4.2210     2.3780 ha         1 GBT       0.167000
     52 H131        -0.4930    -2.9090     0.1600 hc         1 GBT       0.051200
     53 H132        -1.1810    -4.2510     1.0510 hc         1 GBT       0.051200
     54 H142        -1.2590    -3.0730     3.1020 hc         1 GBT       0.052700
     55 H141        -0.1030    -1.8670     2.5950 hc         1 GBT       0.052700
     56 H151        -2.8510    -2.1540     1.3020 h1         1 GBT       0.035200
     57 H152        -2.5390    -1.1180     2.6990 h1         1 GBT       0.035200
     58 H181        -2.8050    -1.1420    -1.2410 ha         1 GBT       0.132000
     59 H202        -4.6850     1.0410    -3.4790 h1         1 GBT       0.071200
     60 H201        -4.0150    -0.5680    -3.2550 h1         1 GBT       0.071200
     61 H221        -7.1370     1.3200    -3.1920 h4         1 GBT       0.151000
     62 H231        -9.1450    -0.2900    -2.2320 ha         1 GBT       0.145000
     63 H241        -7.7930    -2.4770    -1.2820 h4         1 GBT       0.035100
     64 H261        -4.8750     2.6030    -1.4780 ha         1 GBT       0.118000
     65 H271        -3.8380     3.2990     0.6350 ha         1 GBT       0.126000
     66 H292        -2.6870     2.7500     2.6300 h1         1 GBT       0.071200
     67 H291        -2.1430     1.1200     2.9520 h1         1 GBT       0.071200
     68 H311         0.3250     0.5860     2.5120 h4         1 GBT       0.164000
     69 H331         1.3200     4.6480     1.5060 h4         1 GBT       0.048100
     70 H371         4.3350     0.8820     1.9200 hn         1 GBT       0.310500
     71 H382         2.4980    -0.8140     1.2020 h1         1 GBT       0.062700
     72 H381         1.8300     0.5770     0.3970 h1         1 GBT       0.062700
@<TRIPOS>BOND
     1     1     2 1   
     2     1    40 1   
     3     1    41 1   
     4     1    42 1   
     5     2     3 ar  
     6     2    39 ar  
     7     3     4 ar  
     8     4     5 1   
     9     4     6 ar  
    10     5    43 1   
    11     5    44 1   
    12     6     7 ar  
    13     6    45 1   
    14     7     8 1   
    15     7    39 ar  
    16     8     9 1   
    17     9    10 1   
    18     9    46 1   
    19     9    47 1   
    20    10    11 1   
    21    10    48 1   
    22    10    49 1   
    23    11    12 2   
    24    11    50 1   
    25    12    13 1   
    26    12    51 1   
    27    13    14 1   
    28    13    52 1   
    29    13    53 1   
    30    14    15 1   
    31    14    54 1   
    32    14    55 1   
    33    15    16 1   
    34    15    56 1   
    35    15    57 1   
    36    16    17 1   
    37    17    18 ar  
    38    17    28 ar  
    39    18    19 ar  
    40    18    58 1   
    41    19    20 1   
    42    19    26 ar  
    43    20    21 1   
    44    20    59 1   
    45    20    60 1   
    46    21    22 1   
    47    21    25 1   
    48    22    23 2   
    49    22    61 1   
    50    23    24 1   
    51    23    62 1   
    52    24    25 2   
    53    24    63 1   
    54    26    27 ar  
    55    26    64 1   
    56    27    28 ar  
    57    27    65 1   
    58    28    29 1   
    59    29    30 1   
    60    29    66 1   
    61    29    67 1   
    62    30    31 1   
    63    30    34 1   
    64    31    32 2   
    65    31    68 1   
    66    32    33 1   
    67    32    35 1   
    68    33    34 2   
    69    33    69 1   
    70    35    36 2   
    71    35    37 1   
    72    37    38 1   
    73    37    70 1   
    74    38    39 1   
    75    38    71 1   
    76    38    72 1   
@<TRIPOS>SUBSTRUCTURE
     1 GBT         1 TEMP              0 ****  ****    0 ROOT
