@<TRIPOS>MOLECULE
GBT
   72    76     1     0     0
SMALL
No Charge or Current Charge


@<TRIPOS>ATOM
      1 C01          3.6860     1.9050    -2.1360 c3         1 GBT      -0.157400
      2 C02          4.3000     0.5530    -1.8040 ca         1 GBT       0.449300
      3 N03          5.2220     0.1180    -2.6870 nb         1 GBT      -0.775000
      4 C04          5.7830    -1.0490    -2.4460 ca         1 GBT       0.639900
      5 N05          6.6790    -1.3520    -3.3780 nv         1 GBT      -1.058900
      6 C06          5.5080    -1.8670    -1.3660 ca         1 GBT      -0.335000
      7 C07          4.5460    -1.4310    -0.4450 ca         1 GBT       0.230100
      8 O08          4.1730    -2.1950     0.6380 os         1 GBT      -0.348100
      9 C09          4.4930    -3.5960     0.7490 c3         1 GBT       0.168600
     10 C10          3.3800    -4.2490     1.5970 c3         1 GBT      -0.044200
     11 C11          2.0210    -4.0180     0.9620 c2         1 GBT      -0.212200
     12 C12          1.1110    -3.1390     1.4050 c2         1 GBT      -0.213200
     13 C13         -0.0980    -2.6810     0.6230 c3         1 GBT      -0.040200
     14 C14         -1.4440    -2.9880     1.3140 c3         1 GBT      -0.076400
     15 C15         -2.6020    -2.1630     0.7170 c3         1 GBT       0.162600
     16 O16         -2.3840    -0.8020     1.1280 os         1 GBT      -0.380100
     17 C17         -3.0540     0.2790     0.5940 ca         1 GBT       0.119100
     18 C18         -3.9230     0.1560    -0.5120 ca         1 GBT      -0.101000
     19 C19         -4.5650     1.2910    -1.0490 ca         1 GBT      -0.089300
     20 C20         -5.5040     1.1710    -2.2500 c3         1 GBT       0.133900
     21 N21         -6.4070     0.0040    -2.2010 na         1 GBT       0.127800
     22 C22         -7.5260    -0.1300    -1.3840 cc         1 GBT      -0.172000
     23 C23         -8.0120    -1.3630    -1.7090 cd         1 GBT      -0.228000
     24 C24         -7.1710    -1.9050    -2.6990 cd         1 GBT       0.238900
     25 N25         -6.1840    -1.0910    -3.0200 nc         1 GBT      -0.528800
     26 C26         -4.3210     2.5530    -0.4760 ca         1 GBT      -0.102000
     27 C27         -3.4630     2.6790     0.6290 ca         1 GBT      -0.073000
     28 C28         -2.8290     1.5460     1.1730 ca         1 GBT      -0.120300
     29 C29         -1.9400     1.7020     2.4080 c3         1 GBT       0.141900
     30 N30         -0.6270     2.3230     2.1520 na         1 GBT       0.134800
     31 C31          0.5490     1.6590     1.8030 cc         1 GBT      -0.114000
     32 C32          1.5030     2.6500     1.8250 cd         1 GBT      -0.282600
     33 C33          0.8360     3.8410     2.1690 cd         1 GBT       0.288900
     34 N34         -0.4560     3.6750     2.3690 nc         1 GBT      -0.534800
     35 C35          2.9740     2.5550     1.6330 c          1 GBT       0.647700
     36 O36          3.7090     3.4900     1.9010 o          1 GBT      -0.611100
     37 N37          3.5360     1.3920     1.1600 ns         1 GBT      -0.501900
     38 C38          2.9060     0.3660     0.3360 c3         1 GBT       0.175300
     39 C39          3.9310    -0.1820    -0.6540 ca         1 GBT      -0.259300
     40 H011         2.5970     1.8280    -2.2350 hc         1 GBT       0.058700
     41 H013         3.9070     2.6400    -1.3540 hc         1 GBT       0.058700
     42 H012         4.0700     2.3090    -3.0800 hc         1 GBT       0.058700
     43 H051         6.9500    -0.5700    -3.9610 hn         1 GBT       0.474000
     44 H052         7.4140    -2.0000    -3.1220 hn         1 GBT       0.474000
     45 H061         6.0320    -2.8090    -1.2550 ha         1 GBT       0.123000
     46 H092         4.4910    -4.0810    -0.2350 h1         1 GBT       0.041200
     47 H091         5.4760    -3.7420     1.2150 h1         1 GBT       0.041200
     48 H101         3.5800    -5.3230     1.6940 hc         1 GBT       0.058200
     49 H102         3.4160    -3.8290     2.6100 hc         1 GBT       0.058200
     50 H111         1.8780    -4.5310     0.0090 ha         1 GBT       0.170000
     51 H121         1.2840    -2.5830     2.3290 ha         1 GBT       0.167000
     52 H131        -0.0090    -1.5990     0.4620 hc         1 GBT       0.051200
     53 H132        -0.1050    -3.1300    -0.3790 hc         1 GBT       0.051200
     54 H142        -1.6670    -4.0570     1.2140 hc         1 GBT       0.052700
     55 H141        -1.3720    -2.7760     2.3880 hc         1 GBT       0.052700
     56 H151        -2.5790    -2.2650    -0.3760 h1         1 GBT       0.035200
     57 H152        -3.5660    -2.5300     1.0910 h1         1 GBT       0.035200
     58 H181        -4.1030    -0.8130    -0.9670 ha         1 GBT       0.132000
     59 H202        -6.1260     2.0710    -2.3240 h1         1 GBT       0.071200
     60 H201        -4.9040     1.1130    -3.1660 h1         1 GBT       0.071200
     61 H221        -7.8530     0.6260    -0.6800 h4         1 GBT       0.151000
     62 H231        -8.8880    -1.8430    -1.2840 ha         1 GBT       0.145000
     63 H241        -7.2530    -2.8660    -3.1930 h4         1 GBT       0.035100
     64 H261        -4.8020     3.4410    -0.8810 ha         1 GBT       0.118000
     65 H271        -3.2960     3.6610     1.0680 ha         1 GBT       0.126000
     66 H292        -2.4710     2.3170     3.1440 h1         1 GBT       0.071200
     67 H291        -1.7670     0.7320     2.8880 h1         1 GBT       0.071200
     68 H311         0.5860     0.5900     1.6400 h4         1 GBT       0.164000
     69 H331         1.2640     4.8280     2.2960 h4         1 GBT       0.048100
     70 H371         4.5470     1.3910     1.1740 hn         1 GBT       0.310500
     71 H382         2.5220    -0.4300     0.9880 h1         1 GBT       0.062700
     72 H381         2.0570     0.7950    -0.2120 h1         1 GBT       0.062700
@<TRIPOS>BOND
     1     1     2 1   
     2     1    40 1   
     3     1    41 1   
     4     1    42 1   
     5     2     3 ar  
     6     2    39 ar  
     7     3     4 ar  
     8     4     5 1   
     9     4     6 ar  
    10     5    43 1   
    11     5    44 1   
    12     6     7 ar  
    13     6    45 1   
    14     7     8 1   
    15     7    39 ar  
    16     8     9 1   
    17     9    10 1   
    18     9    46 1   
    19     9    47 1   
    20    10    11 1   
    21    10    48 1   
    22    10    49 1   
    23    11    12 2   
    24    11    50 1   
    25    12    13 1   
    26    12    51 1   
    27    13    14 1   
    28    13    52 1   
    29    13    53 1   
    30    14    15 1   
    31    14    54 1   
    32    14    55 1   
    33    15    16 1   
    34    15    56 1   
    35    15    57 1   
    36    16    17 1   
    37    17    18 ar  
    38    17    28 ar  
    39    18    19 ar  
    40    18    58 1   
    41    19    20 1   
    42    19    26 ar  
    43    20    21 1   
    44    20    59 1   
    45    20    60 1   
    46    21    22 1   
    47    21    25 1   
    48    22    23 2   
    49    22    61 1   
    50    23    24 1   
    51    23    62 1   
    52    24    25 2   
    53    24    63 1   
    54    26    27 ar  
    55    26    64 1   
    56    27    28 ar  
    57    27    65 1   
    58    28    29 1   
    59    29    30 1   
    60    29    66 1   
    61    29    67 1   
    62    30    31 1   
    63    30    34 1   
    64    31    32 2   
    65    31    68 1   
    66    32    33 1   
    67    32    35 1   
    68    33    34 2   
    69    33    69 1   
    70    35    36 2   
    71    35    37 1   
    72    37    38 1   
    73    37    70 1   
    74    38    39 1   
    75    38    71 1   
    76    38    72 1   
@<TRIPOS>SUBSTRUCTURE
     1 GBT         1 TEMP              0 ****  ****    0 ROOT
