@<TRIPOS>MOLECULE
GBU
   42    44     1     0     0
SMALL
No Charge or Current Charge


@<TRIPOS>ATOM
      1 C10        107.2840   111.4140    75.9800 ca         1 GBU       0.051100
      2 C15        110.5810   107.4970    75.3260 c3         1 GBU       0.174800
      3 C17        109.7360   107.5680    72.4480 ca         1 GBU      -0.109000
      4 C20        110.4230   108.2660    70.2230 ca         1 GBU      -0.109000
      5 C21        111.1660   109.3170    70.7840 ca         1 GBU      -0.106000
      6 C22        111.1950   109.4940    72.1770 ca         1 GBU      -0.105000
      7 C01        111.4980   106.1630    77.1700 c3         1 GBU       0.154100
      8 C03        110.6380   108.4030    77.6640 c3         1 GBU       0.172800
      9 C04        110.5920   109.9030    77.3090 c3         1 GBU      -0.034100
     10 C05        109.4190   110.2650    76.3840 ca         1 GBU      -0.063300
     11 C06        109.3920   109.7550    75.0560 ca         1 GBU      -0.058300
     12 C07        108.3040   110.0930    74.2140 ca         1 GBU      -0.110000
     13 C08        107.2670   110.9120    74.6710 ca         1 GBU       0.125100
     14 C12        108.3550   111.0920    76.8390 ca         1 GBU       0.072000
     15 C14        110.5270   108.8410    74.5460 c3         1 GBU       0.029900
     16 C16        110.4870   108.6180    73.0240 ca         1 GBU      -0.075300
     17 C18        109.7020   107.3890    71.0530 ca         1 GBU      -0.075300
     18 C19        108.8910   106.2530    70.4480 c3         1 GBU      -0.046800
     19 N02        111.2710   107.5280    76.6450 n3         1 GBU      -0.724600
     20 O09        106.2270   111.2260    73.8450 oh         1 GBU      -0.531100
     21 O11        106.2510   112.2130    76.4130 oh         1 GBU      -0.553100
     22 Cl1        108.3080   111.7410    78.4880 cl         1 GBU      -0.216000
     23 H1         109.5580   107.1130    75.4410 h1         1 GBU       0.038200
     24 H2         111.1150   106.7790    74.6880 h1         1 GBU       0.038200
     25 H4         110.4070   108.1360    69.1430 ha         1 GBU       0.111000
     26 H5         111.7180   109.9960    70.1390 ha         1 GBU       0.113000
     27 H6         111.7700   110.3160    72.5970 ha         1 GBU       0.114000
     28 H7         112.0880   106.1940    78.0960 h1         1 GBU       0.031367
     29 H8         110.5450   105.6620    77.3860 h1         1 GBU       0.031367
     30 H9         112.0510   105.5520    76.4430 h1         1 GBU       0.031367
     31 H10        109.6190   108.0590    77.8870 h1         1 GBU       0.034700
     32 H11        111.2100   108.3180    78.5980 h1         1 GBU       0.034700
     33 H12        111.5470   110.2000    76.8610 hc         1 GBU       0.062700
     34 H13        110.5560   110.4560    78.2510 hc         1 GBU       0.062700
     35 H14        108.2430   109.7250    73.1950 ha         1 GBU       0.145000
     36 H15        111.4830   109.3390    74.7460 hc         1 GBU       0.078700
     37 H16        109.4720   105.3230    70.4340 hc         1 GBU       0.042367
     38 H17        107.9750   106.0670    71.0230 hc         1 GBU       0.042367
     39 H18        108.5910   106.4760    69.4170 hc         1 GBU       0.042367
     40 H20        105.6270   111.8010    74.3730 ho         1 GBU       0.483000
     41 H21        106.4310   112.4660    77.3470 ho         1 GBU       0.486000
     42 H3         109.1670   106.8910    73.0810 ha         1 GBU       0.111000
@<TRIPOS>BOND
     1     1    13 ar  
     2     1    14 ar  
     3     1    21 1   
     4     2    15 1   
     5     2    19 1   
     6     2    23 1   
     7     2    24 1   
     8     3    16 ar  
     9     3    17 ar  
    10     3    42 1   
    11     4     5 ar  
    12     4    17 ar  
    13     4    25 1   
    14     5     6 ar  
    15     5    26 1   
    16     6    16 ar  
    17     6    27 1   
    18     7    19 1   
    19     7    28 1   
    20     7    29 1   
    21     7    30 1   
    22     8     9 1   
    23     8    19 1   
    24     8    31 1   
    25     8    32 1   
    26     9    10 1   
    27     9    33 1   
    28     9    34 1   
    29    10    11 ar  
    30    10    14 ar  
    31    11    12 ar  
    32    11    15 1   
    33    12    13 ar  
    34    12    35 1   
    35    13    20 1   
    36    14    22 1   
    37    15    16 1   
    38    15    36 1   
    39    17    18 1   
    40    18    37 1   
    41    18    38 1   
    42    18    39 1   
    43    20    40 1   
    44    21    41 1   
@<TRIPOS>SUBSTRUCTURE
     1 GBU         1 TEMP              0 ****  ****    0 ROOT
