@<TRIPOS>MOLECULE
GBU
   42    44     1     0     0
SMALL
abcg2


@<TRIPOS>ATOM
      1 C10        107.3260   111.3930    75.9680 ca         1 GBU       0.051100
      2 C15        110.5320   107.4960    75.3410 c3         1 GBU       0.174800
      3 C17        109.7280   107.6020    72.4920 ca         1 GBU      -0.109000
      4 C20        110.3980   108.3000    70.3020 ca         1 GBU      -0.109000
      5 C21        111.1490   109.3210    70.8660 ca         1 GBU      -0.106000
      6 C22        111.1910   109.4790    72.2440 ca         1 GBU      -0.105000
      7 C01        111.4840   106.2170    77.1050 c3         1 GBU       0.154100
      8 C03        110.6470   108.3850    77.6140 c3         1 GBU       0.172800
      9 C04        110.5930   109.8710    77.2610 c3         1 GBU      -0.034100
     10 C05        109.4520   110.2430    76.3580 ca         1 GBU      -0.063300
     11 C06        109.4010   109.7490    75.0500 ca         1 GBU      -0.058300
     12 C07        108.3320   110.0810    74.2260 ca         1 GBU      -0.110000
     13 C08        107.2990   110.8890    74.6670 ca         1 GBU       0.125100
     14 C12        108.4020   111.0560    76.7830 ca         1 GBU       0.072000
     15 C14        110.5140   108.8320    74.5710 c3         1 GBU       0.029900
     16 C16        110.4790   108.6190    73.0750 ca         1 GBU      -0.075300
     17 C18        109.6770   107.4240    71.1120 ca         1 GBU      -0.075300
     18 C19        108.8870   106.2970    70.5140 c3         1 GBU      -0.046800
     19 N02        111.2570   107.5540    76.5950 n3         1 GBU      -0.724600
     20 O09        106.2840   111.1730    73.8250 oh         1 GBU      -0.531100
     21 O11        106.2940   112.1790    76.3310 oh         1 GBU      -0.553100
     22 CL1        108.3660   111.7130    78.3970 cl         1 GBU      -0.216000
     23 H1         109.4990   107.1300    75.4770 h1         1 GBU       0.038200
     24 H2         111.0430   106.7570    74.7200 h1         1 GBU       0.038200
     25 H4         110.3680   108.1830    69.2260 ha         1 GBU       0.111000
     26 H5         111.7070   109.9960    70.2290 ha         1 GBU       0.113000
     27 H6         111.7810   110.2780    72.6780 ha         1 GBU       0.114000
     28 H7         112.0790   106.2630    78.0180 h1         1 GBU       0.031367
     29 H8         110.5560   105.6740    77.3380 h1         1 GBU       0.031367
     30 H9         112.0410   105.6270    76.3750 h1         1 GBU       0.031367
     31 H10        109.6330   108.0410    77.8790 h1         1 GBU       0.034700
     32 H11        111.2550   108.2820    78.5160 h1         1 GBU       0.034700
     33 H12        111.5450   110.1610    76.8060 hc         1 GBU       0.062700
     34 H13        110.5300   110.4290    78.1920 hc         1 GBU       0.062700
     35 H14        108.2830   109.7100    73.2110 ha         1 GBU       0.145000
     36 H15        111.4690   109.3200    74.7920 hc         1 GBU       0.078700
     37 H16        109.5060   105.4040    70.4010 hc         1 GBU       0.042367
     38 H17        108.0390   106.0230    71.1410 hc         1 GBU       0.042367
     39 H18        108.5070   106.5540    69.5250 hc         1 GBU       0.042367
     40 H20        105.6320   111.7370    74.2560 ho         1 GBU       0.483000
     41 H21        106.3620   112.4520    77.2540 ho         1 GBU       0.486000
     42 H3         109.1560   106.9280    73.1220 ha         1 GBU       0.111000
@<TRIPOS>BOND
     1     1    13 ar  
     2     1    14 ar  
     3     1    21 1   
     4     2    15 1   
     5     2    19 1   
     6     2    23 1   
     7     2    24 1   
     8     3    16 ar  
     9     3    17 ar  
    10     3    42 1   
    11     4     5 ar  
    12     4    17 ar  
    13     4    25 1   
    14     5     6 ar  
    15     5    26 1   
    16     6    16 ar  
    17     6    27 1   
    18     7    19 1   
    19     7    28 1   
    20     7    29 1   
    21     7    30 1   
    22     8     9 1   
    23     8    19 1   
    24     8    31 1   
    25     8    32 1   
    26     9    10 1   
    27     9    33 1   
    28     9    34 1   
    29    10    11 ar  
    30    10    14 ar  
    31    11    12 ar  
    32    11    15 1   
    33    12    13 ar  
    34    12    35 1   
    35    13    20 1   
    36    14    22 1   
    37    15    16 1   
    38    15    36 1   
    39    17    18 1   
    40    18    37 1   
    41    18    38 1   
    42    18    39 1   
    43    20    40 1   
    44    21    41 1   
@<TRIPOS>SUBSTRUCTURE
     1 GBU         1 TEMP              0 ****  ****    0 ROOT
