@<TRIPOS>MOLECULE
GBV
   55    57     1     0     0
SMALL
abcg2


@<TRIPOS>ATOM
      1 C17          0.3460    -2.6010     0.3830 c3         1 GBV       0.103000
      2 C21          3.3370    -0.2770     0.1750 c3         1 GBV      -0.158400
      3 C22          4.7360    -0.8920     0.1650 c3         1 GBV      -0.067400
      4 C24          7.1640    -0.5430    -0.4710 c3         1 GBV      -0.066400
      5 C26          9.5960    -0.2550    -1.1790 c5         1 GBV      -0.087400
      6 C01         -4.0060     1.0390    -1.4820 ca         1 GBV      -0.073000
      7 C02         -2.8840     0.2260    -1.4830 ca         1 GBV      -0.173000
      8 C03         -2.5060    -0.4460    -0.3220 ca         1 GBV       0.139100
      9 C04         -3.2710    -0.2930     0.8330 ca         1 GBV      -0.173000
     10 C05         -4.3940     0.5230     0.8110 ca         1 GBV      -0.073000
     11 C06         -4.7800     1.2060    -0.3370 ca         1 GBV      -0.129300
     12 C07         -6.0170     2.0710    -0.3430 c3         1 GBV       0.101100
     13 C08         -7.2660     1.3090    -0.0420 ce         1 GBV      -0.791400
     14 C09         -8.1260     1.5130     1.0340 c          1 GBV       0.620200
     15 C12         -9.0510    -0.5720     0.2970 c          1 GBV       0.817900
     16 C16         -0.9370    -1.8850     0.7500 c3         1 GBV       0.137600
     17 C19          2.3240    -1.2050     0.8050 c          1 GBV       0.599100
     18 C23          5.7770     0.0770    -0.3800 c3         1 GBV      -0.079400
     19 C25          8.2190     0.3960    -1.0420 c5         1 GBV       0.098300
     20 C27         10.3640    -0.1590     0.1280 c5         1 GBV       0.056600
     21 N11         -9.0950     0.4490     1.1370 ns         1 GBV      -0.469500
     22 N18          1.3970    -1.7040    -0.0310 ns         1 GBV      -0.502900
     23 O10         -8.1400     2.4060     1.8740 o          1 GBV      -0.531000
     24 O13         -9.7180    -1.5480     0.1460 o          1 GBV      -0.455000
     25 O15         -1.4030    -1.2180    -0.4080 os         1 GBV      -0.359100
     26 O20          2.3730    -1.4970     1.9940 o          1 GBV      -0.609100
     27 S14         -7.5790    -0.1920    -0.8260 sx         1 GBV       0.033100
     28 S28         10.4040     1.6030     0.5570 ss         1 GBV      -0.241000
     29 S29          8.3890     1.8820     0.0540 ss         1 GBV      -0.278000
     30 H1           0.6790    -3.1710     1.2490 h1         1 GBV       0.066700
     31 H2           0.1590    -3.3140    -0.4210 h1         1 GBV       0.066700
     32 H3           3.3500     0.6470     0.7600 hc         1 GBV       0.061200
     33 H4           3.0490    -0.0040    -0.8430 hc         1 GBV       0.061200
     34 H5           5.0130    -1.1950     1.1780 hc         1 GBV       0.051200
     35 H6           4.7270    -1.8020    -0.4440 hc         1 GBV       0.051200
     36 H7           7.4820    -0.9030     0.5120 hc         1 GBV       0.049700
     37 H8           7.1190    -1.4180    -1.1280 hc         1 GBV       0.049700
     38 H10         10.1670     0.2390    -1.9650 hc         1 GBV       0.070700
     39 H12         -4.2830     1.5530    -2.3950 ha         1 GBV       0.115000
     40 H13         -2.2960     0.1070    -2.3850 ha         1 GBV       0.120000
     41 H14         -3.0110    -0.8000     1.7530 ha         1 GBV       0.120000
     42 H15         -4.9830     0.6230     1.7160 ha         1 GBV       0.115000
     43 H16         -5.9330     2.8500     0.4200 hc         1 GBV       0.055700
     44 H17         -6.0780     2.5990    -1.3000 hc         1 GBV       0.055700
     45 H18         -1.6720    -2.6150     1.1050 h1         1 GBV       0.047700
     46 H19         -0.7510    -1.1710     1.5610 h1         1 GBV       0.047700
     47 H20          5.4710     0.4240    -1.3730 hc         1 GBV       0.049200
     48 H21          5.8050     0.9630     0.2640 hc         1 GBV       0.049200
     49 H22          7.8910     0.7610    -2.0180 h1         1 GBV       0.086700
     50 H24          9.8970    -0.7330     0.9280 h1         1 GBV       0.085200
     51 H25         11.3980    -0.4870     0.0180 h1         1 GBV       0.085200
     52 H26         -9.7870     0.4640     1.8770 hn         1 GBV       0.350500
     53 H27          1.3980    -1.3950    -0.9890 hn         1 GBV       0.320500
     54 H11         -8.3760     0.0560    -1.8970 hs         1 GBV       0.307000
     55 H9           9.4720    -1.3010    -1.4710 hc         1 GBV       0.070700
@<TRIPOS>BOND
     1     1    16 1   
     2     1    22 1   
     3     1    30 1   
     4     1    31 1   
     5     2     3 1   
     6     2    17 1   
     7     2    32 1   
     8     2    33 1   
     9     3    18 1   
    10     3    34 1   
    11     3    35 1   
    12     4    18 1   
    13     4    19 1   
    14     4    36 1   
    15     4    37 1   
    16     5    19 1   
    17     5    20 1   
    18     5    38 1   
    19     5    55 1   
    20     6     7 ar  
    21     6    11 ar  
    22     6    39 1   
    23     7     8 ar  
    24     7    40 1   
    25     8     9 ar  
    26     8    25 1   
    27     9    10 ar  
    28     9    41 1   
    29    10    11 ar  
    30    10    42 1   
    31    11    12 1   
    32    12    13 1   
    33    12    43 1   
    34    12    44 1   
    35    13    14 1   
    36    13    27 2   
    37    14    21 1   
    38    14    23 2   
    39    15    21 1   
    40    15    24 2   
    41    15    27 1   
    42    16    25 1   
    43    16    45 1   
    44    16    46 1   
    45    17    22 1   
    46    17    26 2   
    47    18    47 1   
    48    18    48 1   
    49    19    29 1   
    50    19    49 1   
    51    20    28 1   
    52    20    50 1   
    53    20    51 1   
    54    21    52 1   
    55    22    53 1   
    56    27    54 1   
    57    28    29 1   
@<TRIPOS>SUBSTRUCTURE
     1 GBV         1 TEMP              0 ****  ****    0 ROOT
