@<TRIPOS>MOLECULE
GBV
   55    57     1     0     0
SMALL
No Charge or Current Charge


@<TRIPOS>ATOM
      1 C17          0.4220    -2.8180     0.4230 c3         1 GBV       0.103000
      2 C21          3.2990    -0.2720    -0.0010 c3         1 GBV      -0.158400
      3 C22          4.7450    -0.8010     0.1520 c3         1 GBV      -0.067400
      4 C24          7.2320    -0.4610    -0.4360 c3         1 GBV      -0.066400
      5 C26          9.7260    -0.2870    -1.2200 c5         1 GBV      -0.087400
      6 C01         -4.0170     1.0240    -1.2400 ca         1 GBV      -0.073000
      7 C02         -2.8870     0.1900    -1.2810 ca         1 GBV      -0.173000
      8 C03         -2.4660    -0.4970    -0.1320 ca         1 GBV       0.139100
      9 C04         -3.1880    -0.3460     1.0720 ca         1 GBV      -0.173000
     10 C05         -4.3190     0.4890     1.1130 ca         1 GBV      -0.073000
     11 C06         -4.7390     1.1800    -0.0400 ca         1 GBV      -0.129300
     12 C07         -5.9660     2.0800     0.0160 c3         1 GBV       0.101100
     13 C08         -7.2630     1.2910     0.0230 ce         1 GBV      -0.791400
     14 C09         -8.3460     1.3450     1.0630 c          1 GBV       0.620200
     15 C12         -9.2590    -0.3320    -0.3080 c          1 GBV       0.817900
     16 C16         -0.8320    -2.0430     0.8880 c3         1 GBV       0.137600
     17 C19          2.2930    -1.1570     0.7420 c          1 GBV       0.599100
     18 C23          5.7860     0.0670    -0.5890 c3         1 GBV      -0.079400
     19 C25          8.3020     0.3590    -1.2080 c5         1 GBV       0.098300
     20 C27         10.3160    -0.0380     0.1930 c5         1 GBV       0.056600
     21 N11         -9.3460     0.4580     0.7840 ns         1 GBV      -0.469500
     22 N18          1.5020    -1.9440    -0.0620 ns         1 GBV      -0.502900
     23 O10         -8.3400     2.0820     2.0290 o          1 GBV      -0.531000
     24 O13        -10.1000    -1.1480    -0.6570 o          1 GBV      -0.455000
     25 O15         -1.3490    -1.3010    -0.2340 os         1 GBV      -0.359100
     26 O20          2.1810    -1.1480     1.9600 o          1 GBV      -0.609100
     27 S14         -7.6750    -0.0010    -1.2470 sx         1 GBV       0.033100
     28 S28         10.3770     1.8010     0.3330 ss         1 GBV      -0.241000
     29 S29          8.4580     2.0680    -0.4610 ss         1 GBV      -0.278000
     30 H1           0.8020    -3.4200     1.2590 h1         1 GBV       0.066700
     31 H2           0.1380    -3.5100    -0.3810 h1         1 GBV       0.066700
     32 H3           3.2520     0.7390     0.4210 hc         1 GBV       0.061200
     33 H4           3.0520    -0.2390    -1.0690 hc         1 GBV       0.061200
     34 H5           5.0030    -0.8430     1.2180 hc         1 GBV       0.051200
     35 H6           4.7940    -1.8290    -0.2290 hc         1 GBV       0.051200
     36 H7           7.4780    -0.4960     0.6320 hc         1 GBV       0.049700
     37 H8           7.2550    -1.4990    -0.7900 hc         1 GBV       0.049700
     38 H10         10.3570     0.1710    -1.9910 hc         1 GBV       0.070700
     39 H12         -4.3330     1.5480    -2.1400 ha         1 GBV       0.115000
     40 H13         -2.3340     0.0740    -2.2100 ha         1 GBV       0.120000
     41 H14         -2.8920    -0.8650     1.9780 ha         1 GBV       0.120000
     42 H15         -4.8760     0.5980     2.0410 ha         1 GBV       0.115000
     43 H16         -5.9020     2.7200     0.9070 hc         1 GBV       0.055700
     44 H17         -5.9580     2.7740    -0.8350 hc         1 GBV       0.055700
     45 H18         -1.5780    -2.7580     1.2570 h1         1 GBV       0.047700
     46 H19         -0.5610    -1.3680     1.7100 h1         1 GBV       0.047700
     47 H20          5.5280     0.1070    -1.6550 hc         1 GBV       0.049200
     48 H21          5.7270     1.0940    -0.2070 hc         1 GBV       0.049200
     49 H22          7.9440     0.4640    -2.2420 h1         1 GBV       0.086700
     50 H24          9.6950    -0.4620     0.9930 h1         1 GBV       0.085200
     51 H25         11.3280    -0.4520     0.2950 h1         1 GBV       0.085200
     52 H26        -10.1450     0.3860     1.3910 hn         1 GBV       0.350500
     53 H27          1.6510    -1.8710    -1.0620 hn         1 GBV       0.320500
     54 H11         -8.4910     0.8440    -2.0050 hs         1 GBV       0.307000
     55 H9           9.6790    -1.3560    -1.4550 hc         1 GBV       0.070700
@<TRIPOS>BOND
     1     1    16 1   
     2     1    22 1   
     3     1    30 1   
     4     1    31 1   
     5     2     3 1   
     6     2    17 1   
     7     2    32 1   
     8     2    33 1   
     9     3    18 1   
    10     3    34 1   
    11     3    35 1   
    12     4    18 1   
    13     4    19 1   
    14     4    36 1   
    15     4    37 1   
    16     5    19 1   
    17     5    20 1   
    18     5    38 1   
    19     5    55 1   
    20     6     7 ar  
    21     6    11 ar  
    22     6    39 1   
    23     7     8 ar  
    24     7    40 1   
    25     8     9 ar  
    26     8    25 1   
    27     9    10 ar  
    28     9    41 1   
    29    10    11 ar  
    30    10    42 1   
    31    11    12 1   
    32    12    13 1   
    33    12    43 1   
    34    12    44 1   
    35    13    14 1   
    36    13    27 2   
    37    14    21 1   
    38    14    23 2   
    39    15    21 1   
    40    15    24 2   
    41    15    27 1   
    42    16    25 1   
    43    16    45 1   
    44    16    46 1   
    45    17    22 1   
    46    17    26 2   
    47    18    47 1   
    48    18    48 1   
    49    19    29 1   
    50    19    49 1   
    51    20    28 1   
    52    20    50 1   
    53    20    51 1   
    54    21    52 1   
    55    22    53 1   
    56    27    54 1   
    57    28    29 1   
@<TRIPOS>SUBSTRUCTURE
     1 GBV         1 TEMP              0 ****  ****    0 ROOT
