@<TRIPOS>MOLECULE
GBW
  132   138     1     0     0
SMALL
bcc


@<TRIPOS>ATOM
      1 C10        -12.8220     2.2310    -0.4860 cc         1 GBW       0.036600
      2 C13        -10.7790     1.0850     0.2130 ca         1 GBW       0.045200
      3 C15         -9.3890    -0.3350    -1.1490 ca         1 GBW       0.187600
      4 C17         -9.1400     0.0460    -3.4860 c3         1 GBW       0.125700
      5 C21         -5.9780    -3.1540     0.6640 c6         1 GBW       0.164300
      6 C22         -5.4320    -3.7950    -0.6050 c6         1 GBW       0.128800
      7 C24         -5.4410    -1.6530    -1.6710 c6         1 GBW       0.128800
      8 C26         -4.0960    -3.4660    -2.5500 c3         1 GBW       0.171800
      9 C02        -13.7320     4.2620     0.4210 c          1 GBW       0.716100
     10 C03        -12.5700     4.2830     1.3040 ca         1 GBW      -0.299900
     11 C04        -12.4230     5.3380     2.2110 ca         1 GBW       0.467200
     12 N05        -11.3970     5.4660     3.0250 nb         1 GBW      -0.679000
     13 C06        -10.4430     4.5270     2.9600 ca         1 GBW       0.423200
     14 C07        -10.4830     3.4440     2.1140 ca         1 GBW      -0.259300
     15 C08        -11.5820     3.2870     1.2550 ca         1 GBW       0.064200
     16 C09        -11.7370     2.2040     0.3240 cd         1 GBW      -0.122400
     17 N11        -13.7750     3.2050    -0.4610 n          1 GBW      -0.353000
     18 C12        -14.9010     3.1430    -1.3830 c3         1 GBW       0.082300
     19 C14        -10.2480     0.7590    -1.0280 ca         1 GBW      -0.254500
     20 O16         -8.8540    -0.7080    -2.3260 os         1 GBW      -0.310400
     21 C18         -9.0310    -1.1010    -0.0350 ca         1 GBW      -0.149300
     22 C19         -8.0930    -2.2740    -0.1370 c3         1 GBW       0.232100
     23 N20         -6.7780    -1.9660     0.4150 n3         1 GBW      -0.705600
     24 N23         -4.6540    -2.8370    -1.3710 n3         1 GBW      -0.700600
     25 C25         -6.0000    -1.0420    -0.3910 c6         1 GBW       0.164300
     26 C27         -3.1680    -2.5830    -3.3570 c3         1 GBW       0.140400
     27 O28         -2.1260    -2.1120    -2.5410 os         1 GBW      -0.377600
     28 C29         -1.2540    -1.2490    -3.2230 c3         1 GBW       0.138400
     29 C65         -9.5700    -0.7420     1.2080 ca         1 GBW       0.187600
     30 O66         -9.2100    -1.5170     2.2450 os         1 GBW      -0.310400
     31 C67         -9.7220    -1.2260     3.5290 c3         1 GBW       0.125700
     32 C68        -10.4460     0.3330     1.3350 ca         1 GBW      -0.254500
     33 H1         -12.9930     1.4440    -1.2080 h4         1 GBW       0.153000
     34 H2          -8.5900    -0.4230    -4.2980 h1         1 GBW       0.041200
     35 H3         -10.2050     0.0360    -3.7300 h1         1 GBW       0.041200
     36 H4          -8.8090     1.0830    -3.3920 h1         1 GBW       0.041200
     37 H5          -6.5730    -3.8830     1.2190 h1         1 GBW       0.058200
     38 H6          -5.1370    -2.8700     1.3050 h1         1 GBW       0.058200
     39 H7          -4.7900    -4.6380    -0.3350 h1         1 GBW       0.032700
     40 H8          -6.2630    -4.2150    -1.2000 h1         1 GBW       0.032700
     41 H9          -4.8090    -0.9030    -2.1520 h1         1 GBW       0.032700
     42 H10         -6.2580    -1.8720    -2.3800 h1         1 GBW       0.032700
     43 H11         -3.5480    -4.3560    -2.2260 h1         1 GBW       0.036700
     44 H12         -4.8820    -3.8240    -3.2390 h1         1 GBW       0.036700
     45 H13        -13.1850     6.1070     2.2610 h4         1 GBW       0.040100
     46 H14         -9.5970     4.6580     3.6250 h4         1 GBW       0.020100
     47 H15         -9.6670     2.7360     2.1160 ha         1 GBW       0.155000
     48 H16        -14.9220     4.0250    -2.0190 h1         1 GBW       0.054700
     49 H17        -14.7940     2.2620    -2.0070 h1         1 GBW       0.054700
     50 H18        -15.8410     3.0780    -0.8390 h1         1 GBW       0.054700
     51 H19        -10.5030     1.3690    -1.8840 ha         1 GBW       0.140500
     52 H20         -8.5010    -3.1030     0.4450 h1         1 GBW       0.044200
     53 H21         -8.0540    -2.6280    -1.1720 h1         1 GBW       0.044200
     54 H24         -5.1600    -0.6920     0.2180 h1         1 GBW       0.058200
     55 H25         -6.6000    -0.1640    -0.6320 h1         1 GBW       0.058200
     56 H26         -2.7780    -3.1790    -4.1950 h1         1 GBW       0.017200
     57 H27         -3.7160    -1.7440    -3.8070 h1         1 GBW       0.017200
     58 H28         -0.7660    -1.7580    -4.0660 h1         1 GBW       0.027200
     59 H29         -1.7970    -0.3900    -3.6430 h1         1 GBW       0.027200
     60 H31         -9.2950    -1.9640     4.2050 h1         1 GBW       0.041200
     61 H32         -9.4300    -0.2290     3.8700 h1         1 GBW       0.041200
     62 H33        -10.8110    -1.3060     3.5660 h1         1 GBW       0.041200
     63 H34        -10.8950     0.5770     2.2890 ha         1 GBW       0.140500
     64 C1          -0.2150    -0.7160    -2.2730 c3         1 GBW       0.136400
     65 O1           0.6270    -1.7630    -1.8490 os         1 GBW      -0.363600
     66 C2           1.6190    -1.3190    -0.9810 c3         1 GBW       0.053400
     67 C3           2.5350    -2.4800    -0.6330 c          1 GBW       0.675100
     68 N1           3.4200    -2.1800     0.3370 ns         1 GBW      -0.572900
     69 O2           2.4690    -3.5580    -1.1930 o          1 GBW      -0.574100
     70 C4           4.4820    -3.0590     0.7620 c3         1 GBW       0.053700
     71 C5           5.7880    -2.2780     0.6230 c          1 GBW       0.668100
     72 C6           4.2580    -3.6060     2.2030 c3         1 GBW      -0.048000
     73 C7           2.9230    -4.3550     2.2250 c3         1 GBW      -0.087767
     74 C8           5.3740    -4.5890     2.5640 c3         1 GBW      -0.087767
     75 C9           4.2150    -2.4900     3.2470 c3         1 GBW      -0.087767
     76 O3           5.8480    -1.1130     1.0020 o          1 GBW      -0.624100
     77 N2           6.8540    -2.8820     0.0840 n          1 GBW      -0.453800
     78 C11          6.9590    -4.2210    -0.4790 c5         1 GBW       0.068000
     79 C16          8.4550    -4.5010    -0.3890 c5         1 GBW       0.130100
     80 C20          9.0440    -3.1400    -0.7190 c5         1 GBW      -0.081400
     81 C23          8.1100    -2.1530    -0.0060 c5         1 GBW       0.033700
     82 O4           8.8490    -4.8410     0.9200 oh         1 GBW      -0.591800
     83 C28          7.9470    -0.8740    -0.8180 c          1 GBW       0.668100
     84 N3           8.6060     0.1860    -0.3270 ns         1 GBW      -0.560900
     85 O5           7.3280    -0.8630    -1.8690 o          1 GBW      -0.598100
     86 C30          8.5970     1.4860    -0.9610 c3         1 GBW       0.146300
     87 C31          9.8260     2.2670    -0.5840 ca         1 GBW      -0.105300
     88 C32         11.0940     1.7940    -0.9160 ca         1 GBW      -0.114500
     89 C33         12.2290     2.5030    -0.5610 ca         1 GBW      -0.116500
     90 C34         12.1270     3.7130     0.1290 ca         1 GBW      -0.002000
     91 C35         10.8570     4.1830     0.4640 ca         1 GBW      -0.116500
     92 C36          9.7240     3.4640     0.1130 ca         1 GBW      -0.114500
     93 C41         13.3270     4.4650     0.5010 cc         1 GBW      -0.107400
     94 S1          13.5150     5.1010     2.0950 ss         1 GBW      -0.176300
     95 C38         15.0380     5.7410     1.6420 cc         1 GBW       0.416300
     96 N4          15.3820     5.5070     0.4190 nd         1 GBW      -0.637000
     97 C40         14.4270     4.7870    -0.2480 cd         1 GBW       0.368600
     98 C37         14.6450     4.4580    -1.6870 c3         1 GBW      -0.122400
     99 H22          0.3610     0.0610    -2.7930 h1         1 GBW       0.030200
    100 H23         -0.7030    -0.2330    -1.4150 h1         1 GBW       0.030200
    101 H30          2.2320    -0.5240    -1.4350 h1         1 GBW       0.037200
    102 H35          1.1980    -0.8940    -0.0580 h1         1 GBW       0.037200
    103 H36          3.4300    -1.2410     0.7060 hn         1 GBW       0.329500
    104 H37          4.4710    -3.9120     0.0830 h1         1 GBW       0.087700
    105 H38          2.8860    -5.1410     1.4690 hc         1 GBW       0.038922
    106 H39          2.7780    -4.8240     3.2000 hc         1 GBW       0.038922
    107 H40          2.0800    -3.6840     2.0580 hc         1 GBW       0.038922
    108 H41          6.3670    -4.1360     2.5290 hc         1 GBW       0.038922
    109 H42          5.2260    -4.9590     3.5800 hc         1 GBW       0.038922
    110 H43          5.3730    -5.4600     1.9050 hc         1 GBW       0.038922
    111 H44          3.4410    -1.7520     3.0280 hc         1 GBW       0.038922
    112 H45          3.9790    -2.9180     4.2230 hc         1 GBW       0.038922
    113 H46          5.1650    -1.9660     3.3400 hc         1 GBW       0.038922
    114 H47          6.3720    -4.9520     0.0710 h1         1 GBW       0.063700
    115 H48          6.6310    -4.2350    -1.5230 h1         1 GBW       0.063700
    116 H49          8.7530    -5.2660    -1.1140 h1         1 GBW       0.054700
    117 H50         10.0810    -3.0330    -0.4020 hc         1 GBW       0.073700
    118 H51          9.0040    -2.9930    -1.7990 hc         1 GBW       0.073700
    119 H52          8.4790    -1.9260     0.9980 h1         1 GBW       0.075700
    120 H53          8.4460    -5.6830     1.1550 ho         1 GBW       0.407000
    121 H54          8.9690     0.1310     0.6120 hn         1 GBW       0.319500
    122 H55          8.5590     1.3400    -2.0410 h1         1 GBW       0.062200
    123 H56          7.7000     2.0480    -0.6840 h1         1 GBW       0.062200
    124 H57         11.1980     0.8570    -1.4500 ha         1 GBW       0.137000
    125 H58         13.2040     2.1000    -0.8030 ha         1 GBW       0.138000
    126 H59         10.7480     5.1210     0.9940 ha         1 GBW       0.138000
    127 H60          8.7470     3.8470     0.3830 ha         1 GBW       0.137000
    128 H61         15.6420     6.2950     2.3470 h5         1 GBW       0.053100
    129 H62         15.3430     3.6270    -1.8030 hc         1 GBW       0.052367
    130 H63         13.7170     4.1840    -2.1850 hc         1 GBW       0.052367
    131 H64         15.0710     5.3150    -2.2090 hc         1 GBW       0.052367
    132 O01        -14.6150     5.1060     0.4280 o          1 GBW      -0.617500
@<TRIPOS>BOND
     1     1    16 2   
     2     1    17 1   
     3     1    33 1   
     4     2    16 1   
     5     2    19 ar  
     6     2    32 ar  
     7     3    19 ar  
     8     3    20 1   
     9     3    21 ar  
    10     4    20 1   
    11     4    34 1   
    12     4    35 1   
    13     4    36 1   
    14     5     6 1   
    15     5    23 1   
    16     5    37 1   
    17     5    38 1   
    18     6    24 1   
    19     6    39 1   
    20     6    40 1   
    21     7    24 1   
    22     7    25 1   
    23     7    41 1   
    24     7    42 1   
    25     8    24 1   
    26     8    26 1   
    27     8    43 1   
    28     8    44 1   
    29     9    10 1   
    30     9    17 1   
    31     9   132 2   
    32    10    11 ar  
    33    10    15 ar  
    34    11    12 ar  
    35    11    45 1   
    36    12    13 ar  
    37    13    14 ar  
    38    13    46 1   
    39    14    15 ar  
    40    14    47 1   
    41    15    16 1   
    42    17    18 1   
    43    18    48 1   
    44    18    49 1   
    45    18    50 1   
    46    19    51 1   
    47    21    22 1   
    48    21    29 ar  
    49    22    23 1   
    50    22    52 1   
    51    22    53 1   
    52    23    25 1   
    53    25    54 1   
    54    25    55 1   
    55    26    27 1   
    56    26    56 1   
    57    26    57 1   
    58    27    28 1   
    59    28    58 1   
    60    28    59 1   
    61    28    64 1   
    62    29    30 1   
    63    29    32 ar  
    64    30    31 1   
    65    31    60 1   
    66    31    61 1   
    67    31    62 1   
    68    32    63 1   
    69    64    65 1   
    70    64    99 1   
    71    64   100 1   
    72    65    66 1   
    73    66    67 1   
    74    66   101 1   
    75    66   102 1   
    76    67    68 1   
    77    67    69 2   
    78    68    70 1   
    79    68   103 1   
    80    70    71 1   
    81    70    72 1   
    82    70   104 1   
    83    71    76 2   
    84    71    77 1   
    85    72    73 1   
    86    72    74 1   
    87    72    75 1   
    88    73   105 1   
    89    73   106 1   
    90    73   107 1   
    91    74   108 1   
    92    74   109 1   
    93    74   110 1   
    94    75   111 1   
    95    75   112 1   
    96    75   113 1   
    97    77    78 1   
    98    77    81 1   
    99    78    79 1   
   100    78   114 1   
   101    78   115 1   
   102    79    80 1   
   103    79    82 1   
   104    79   116 1   
   105    80    81 1   
   106    80   117 1   
   107    80   118 1   
   108    81    83 1   
   109    81   119 1   
   110    82   120 1   
   111    83    84 1   
   112    83    85 2   
   113    84    86 1   
   114    84   121 1   
   115    86    87 1   
   116    86   122 1   
   117    86   123 1   
   118    87    88 ar  
   119    87    92 ar  
   120    88    89 ar  
   121    88   124 1   
   122    89    90 ar  
   123    89   125 1   
   124    90    91 ar  
   125    90    93 1   
   126    91    92 ar  
   127    91   126 1   
   128    92   127 1   
   129    93    94 1   
   130    93    97 2   
   131    94    95 1   
   132    95    96 2   
   133    95   128 1   
   134    96    97 1   
   135    97    98 1   
   136    98   129 1   
   137    98   130 1   
   138    98   131 1   
@<TRIPOS>SUBSTRUCTURE
     1 GBW         1 TEMP              0 ****  ****    0 ROOT
