@<TRIPOS>MOLECULE
GBW
  132   138     1     0     0
SMALL
No Charge or Current Charge


@<TRIPOS>ATOM
      1 C10        -13.6080     1.7520    -1.0980 cc         1 GBW      -0.013400
      2 C13        -11.7170     0.7940     0.1700 ca         1 GBW       0.045200
      3 C15         -9.9790    -0.5960    -0.8640 ca         1 GBW       0.187600
      4 C17         -9.5030    -0.4880    -3.2930 c3         1 GBW       0.148900
      5 C21         -6.2580    -2.6660     1.4180 c6         1 GBW       0.164300
      6 C22         -5.6200    -3.3660     0.1730 c6         1 GBW       0.128800
      7 C24         -5.9620    -1.3180    -1.1380 c6         1 GBW       0.128800
      8 C26         -4.3510    -3.0610    -1.9370 c3         1 GBW       0.171800
      9 C02        -15.0410     3.5850    -0.3070 c          1 GBW       0.573600
     10 C03        -14.1410     3.7100     0.8750 ca         1 GBW      -0.234600
     11 C04        -14.3780     4.7230     1.8180 ca         1 GBW       0.401900
     12 N05        -13.5710     4.9450     2.8800 nb         1 GBW      -0.679000
     13 C06        -12.4850     4.1560     3.0130 ca         1 GBW       0.357900
     14 C07        -12.1790     3.1190     2.1210 ca         1 GBW      -0.176000
     15 C08        -13.0410     2.8510     1.0370 ca         1 GBW       0.064200
     16 C09        -12.8190     1.7790     0.0360 cd         1 GBW      -0.122400
     17 N11        -14.6900     2.6210    -1.2780 n          1 GBW      -0.286000
     18 C12        -15.5430     2.5120    -2.4850 c3         1 GBW       0.082300
     19 C14        -11.0090     0.3620    -0.9670 ca         1 GBW      -0.236500
     20 O16         -9.2690    -1.0120    -1.9750 os         1 GBW      -0.333600
     21 C18         -9.6530    -1.1490     0.3930 ca         1 GBW      -0.149300
     22 C19         -8.5340    -2.1860     0.5260 c3         1 GBW       0.232100
     23 N20         -7.2570    -1.6190     1.0410 n3         1 GBW      -0.705600
     24 N23         -4.9850    -2.3900    -0.7650 n3         1 GBW      -0.700600
     25 C25         -6.6080    -0.6370     0.1150 c6         1 GBW       0.164300
     26 C27         -3.5250    -2.1570    -2.8970 c3         1 GBW       0.163600
     27 O28         -2.4170    -1.5790    -2.1780 os         1 GBW      -0.424000
     28 C29         -1.5920    -0.6970    -2.9630 c3         1 GBW       0.161600
     29 C65        -10.3870    -0.7560     1.5310 ca         1 GBW       0.187600
     30 O66        -10.0890    -1.3440     2.7470 os         1 GBW      -0.333600
     31 C67        -10.7550    -0.9830     3.9700 c3         1 GBW       0.148900
     32 C68        -11.4140     0.2030     1.4100 ca         1 GBW      -0.236500
     33 H1         -13.5100     1.0350    -1.9060 h4         1 GBW       0.203000
     34 H2          -8.8220    -0.9570    -4.0140 h1         1 GBW       0.041200
     35 H3         -10.5320    -0.6900    -3.6170 h1         1 GBW       0.041200
     36 H4          -9.3300     0.5960    -3.3180 h1         1 GBW       0.041200
     37 H5          -6.7200    -3.4280     2.0630 h1         1 GBW       0.058200
     38 H6          -5.4480    -2.2090     2.0050 h1         1 GBW       0.058200
     39 H7          -4.8710    -4.0890     0.5270 h1         1 GBW       0.032700
     40 H8          -6.3970    -3.9430    -0.3490 h1         1 GBW       0.032700
     41 H9          -5.4660    -0.5340    -1.7280 h1         1 GBW       0.032700
     42 H10         -6.7560    -1.7380    -1.7710 h1         1 GBW       0.032700
     43 H11         -3.6800    -3.8550    -1.5810 h1         1 GBW       0.036700
     44 H12         -5.1280    -3.5560    -2.5350 h1         1 GBW       0.036700
     45 H13        -15.2290     5.3970     1.7220 h4         1 GBW       0.040100
     46 H14        -11.8310     4.3710     3.8580 h4         1 GBW       0.020100
     47 H15        -11.2590     2.5700     2.2770 ha         1 GBW       0.137000
     48 H16        -15.6170     3.4900    -2.9770 h1         1 GBW       0.054700
     49 H17        -15.1200     1.7940    -3.1980 h1         1 GBW       0.054700
     50 H18        -16.5480     2.1770    -2.1980 h1         1 GBW       0.054700
     51 H19        -11.2460     0.8050    -1.9280 ha         1 GBW       0.122500
     52 H20         -8.8850    -2.9710     1.2090 h1         1 GBW       0.044200
     53 H21         -8.3730    -2.6880    -0.4370 h1         1 GBW       0.044200
     54 H24         -5.8140    -0.0970     0.6520 h1         1 GBW       0.058200
     55 H25         -7.3260     0.1270    -0.2180 h1         1 GBW       0.058200
     56 H26         -3.1570    -2.7710    -3.7290 h1         1 GBW       0.017200
     57 H27         -4.1680    -1.3730    -3.3190 h1         1 GBW       0.017200
     58 H28         -1.1730    -1.2180    -3.8340 h1         1 GBW       0.027200
     59 H29         -2.1850     0.1530    -3.3270 h1         1 GBW       0.027200
     60 H31        -10.3450    -1.5580     4.8090 h1         1 GBW       0.041200
     61 H32        -10.6160     0.0830     4.1890 h1         1 GBW       0.041200
     62 H33        -11.8300    -1.1950     3.9070 h1         1 GBW       0.041200
     63 H34        -12.0190     0.4660     2.2700 ha         1 GBW       0.122500
     64 C1          -0.4430    -0.1600    -2.0780 c3         1 GBW       0.159600
     65 O1           0.5020    -1.2220    -1.8390 os         1 GBW      -0.410000
     66 C2           1.6240    -0.8530    -1.0020 c3         1 GBW       0.076600
     67 C3           2.6180    -2.0210    -0.7700 c          1 GBW       0.608100
     68 N1           3.6940    -1.7010     0.0340 ns         1 GBW      -0.505900
     69 O2           2.4830    -3.1390    -1.2540 o          1 GBW      -0.574100
     70 C4           4.7820    -2.6320     0.4300 c3         1 GBW       0.053700
     71 C5           6.1540    -1.8930     0.2450 c          1 GBW       0.601100
     72 C6           4.5520    -3.2040     1.8860 c3         1 GBW      -0.048000
     73 C7           3.2240    -4.0120     1.9350 c3         1 GBW      -0.087767
     74 C8           5.6990    -4.1610     2.3130 c3         1 GBW      -0.087767
     75 C9           4.4650    -2.0580     2.9350 c3         1 GBW      -0.087767
     76 O3           6.2680    -0.7080     0.5490 o          1 GBW      -0.624100
     77 N2           7.2790    -2.6020    -0.2490 n          1 GBW      -0.386800
     78 C11          7.2350    -3.9630    -0.8330 c5         1 GBW       0.068000
     79 C16          8.7340    -4.3800    -0.7890 c5         1 GBW       0.153300
     80 C20          9.4160    -3.0520    -1.1970 c5         1 GBW      -0.081400
     81 C23          8.6220    -1.9640    -0.4020 c5         1 GBW       0.033700
     82 O4           9.1530    -4.8020     0.5140 oh         1 GBW      -0.654000
     83 C28          8.6570    -0.6450    -1.2430 c          1 GBW       0.601100
     84 N3           9.7450     0.1100    -0.8650 ns         1 GBW      -0.493900
     85 O5           7.8800    -0.2990    -2.1260 o          1 GBW      -0.598100
     86 C30         10.0880     1.4010    -1.4530 c3         1 GBW       0.146300
     87 C31         11.3660     1.9530    -0.8430 ca         1 GBW      -0.105300
     88 C32         12.6170     1.6250    -1.3960 ca         1 GBW      -0.096500
     89 C33         13.7990     2.1310    -0.8270 ca         1 GBW      -0.098500
     90 C34         13.7440     2.9760     0.2980 ca         1 GBW      -0.002000
     91 C35         12.4930     3.2890     0.8590 ca         1 GBW      -0.098500
     92 C36         11.3100     2.7850     0.2920 ca         1 GBW      -0.096500
     93 C41         14.9650     3.4990     0.9070 cc         1 GBW      -0.187000
     94 S1          15.3430     3.4110     2.6000 ss         1 GBW      -0.031400
     95 C38         16.8090     4.2820     2.2240 cc         1 GBW       0.416300
     96 N4          16.9830     4.6410     0.9540 nd         1 GBW      -0.637000
     97 C40         15.9120     4.2020     0.1880 cd         1 GBW       0.303300
     98 C37         15.8830     4.5380    -1.2800 c3         1 GBW      -0.122400
     99 H22          0.0460     0.6730    -2.5990 h1         1 GBW       0.030200
    100 H23         -0.8540     0.2220    -1.1340 h1         1 GBW       0.030200
    101 H30          2.1860    -0.0260    -1.4560 h1         1 GBW       0.037200
    102 H35          1.2740    -0.5180    -0.0170 h1         1 GBW       0.037200
    103 H36          3.7490    -0.7440     0.3650 hn         1 GBW       0.329500
    104 H37          4.7720    -3.4720    -0.2730 h1         1 GBW       0.087700
    105 H38          3.2210    -4.8080     1.1800 hc         1 GBW       0.038922
    106 H39          3.0850    -4.4810     2.9170 hc         1 GBW       0.038922
    107 H40          2.3550    -3.3690     1.7540 hc         1 GBW       0.038922
    108 H41          6.6760    -3.6650     2.2810 hc         1 GBW       0.038922
    109 H42          5.5470    -4.5150     3.3400 hc         1 GBW       0.038922
    110 H43          5.7350    -5.0480     1.6700 hc         1 GBW       0.038922
    111 H44          3.6540    -1.3580     2.7020 hc         1 GBW       0.038922
    112 H45          4.2720    -2.4610     3.9370 hc         1 GBW       0.038922
    113 H46          5.4020    -1.4910     2.9860 hc         1 GBW       0.038922
    114 H47          6.6090    -4.6650    -0.2730 h1         1 GBW       0.063700
    115 H48          6.8630    -3.9270    -1.8660 h1         1 GBW       0.063700
    116 H49          8.9450    -5.1730    -1.5210 h1         1 GBW       0.054700
    117 H50         10.4880    -3.0390    -0.9700 hc         1 GBW       0.073700
    118 H51          9.3210    -2.9040    -2.2800 hc         1 GBW       0.073700
    119 H52          9.0640    -1.7830     0.5870 h1         1 GBW       0.075700
    120 H53          8.7410    -5.6780     0.6800 ho         1 GBW       0.446000
    121 H54         10.3380    -0.2560    -0.1310 hn         1 GBW       0.319500
    122 H55         10.2150     1.2790    -2.5370 h1         1 GBW       0.062200
    123 H56          9.2600     2.1020    -1.2860 h1         1 GBW       0.062200
    124 H57         12.6760     0.9730    -2.2650 ha         1 GBW       0.119000
    125 H58         14.7590     1.8550    -1.2570 ha         1 GBW       0.120000
    126 H59         12.4360     3.9320     1.7350 ha         1 GBW       0.120000
    127 H60         10.3500     3.0400     0.7360 ha         1 GBW       0.119000
    128 H61         17.5050     4.5050     3.0230 h5         1 GBW       0.053100
    129 H62         16.2740     3.7080    -1.8790 hc         1 GBW       0.052367
    130 H63         14.8630     4.7530    -1.6180 hc         1 GBW       0.052367
    131 H64         16.4930     5.4230    -1.4970 hc         1 GBW       0.052367
    132 O01        -16.0280     4.3000    -0.4350 o          1 GBW      -0.542000
@<TRIPOS>BOND
     1     1    16 2   
     2     1    17 1   
     3     1    33 1   
     4     2    16 1   
     5     2    19 ar  
     6     2    32 ar  
     7     3    19 ar  
     8     3    20 1   
     9     3    21 ar  
    10     4    20 1   
    11     4    34 1   
    12     4    35 1   
    13     4    36 1   
    14     5     6 1   
    15     5    23 1   
    16     5    37 1   
    17     5    38 1   
    18     6    24 1   
    19     6    39 1   
    20     6    40 1   
    21     7    24 1   
    22     7    25 1   
    23     7    41 1   
    24     7    42 1   
    25     8    24 1   
    26     8    26 1   
    27     8    43 1   
    28     8    44 1   
    29     9    10 1   
    30     9    17 1   
    31     9   132 2   
    32    10    11 ar  
    33    10    15 ar  
    34    11    12 ar  
    35    11    45 1   
    36    12    13 ar  
    37    13    14 ar  
    38    13    46 1   
    39    14    15 ar  
    40    14    47 1   
    41    15    16 1   
    42    17    18 1   
    43    18    48 1   
    44    18    49 1   
    45    18    50 1   
    46    19    51 1   
    47    21    22 1   
    48    21    29 ar  
    49    22    23 1   
    50    22    52 1   
    51    22    53 1   
    52    23    25 1   
    53    25    54 1   
    54    25    55 1   
    55    26    27 1   
    56    26    56 1   
    57    26    57 1   
    58    27    28 1   
    59    28    58 1   
    60    28    59 1   
    61    28    64 1   
    62    29    30 1   
    63    29    32 ar  
    64    30    31 1   
    65    31    60 1   
    66    31    61 1   
    67    31    62 1   
    68    32    63 1   
    69    64    65 1   
    70    64    99 1   
    71    64   100 1   
    72    65    66 1   
    73    66    67 1   
    74    66   101 1   
    75    66   102 1   
    76    67    68 1   
    77    67    69 2   
    78    68    70 1   
    79    68   103 1   
    80    70    71 1   
    81    70    72 1   
    82    70   104 1   
    83    71    76 2   
    84    71    77 1   
    85    72    73 1   
    86    72    74 1   
    87    72    75 1   
    88    73   105 1   
    89    73   106 1   
    90    73   107 1   
    91    74   108 1   
    92    74   109 1   
    93    74   110 1   
    94    75   111 1   
    95    75   112 1   
    96    75   113 1   
    97    77    78 1   
    98    77    81 1   
    99    78    79 1   
   100    78   114 1   
   101    78   115 1   
   102    79    80 1   
   103    79    82 1   
   104    79   116 1   
   105    80    81 1   
   106    80   117 1   
   107    80   118 1   
   108    81    83 1   
   109    81   119 1   
   110    82   120 1   
   111    83    84 1   
   112    83    85 2   
   113    84    86 1   
   114    84   121 1   
   115    86    87 1   
   116    86   122 1   
   117    86   123 1   
   118    87    88 ar  
   119    87    92 ar  
   120    88    89 ar  
   121    88   124 1   
   122    89    90 ar  
   123    89   125 1   
   124    90    91 ar  
   125    90    93 1   
   126    91    92 ar  
   127    91   126 1   
   128    92   127 1   
   129    93    94 1   
   130    93    97 2   
   131    94    95 1   
   132    95    96 2   
   133    95   128 1   
   134    96    97 1   
   135    97    98 1   
   136    98   129 1   
   137    98   130 1   
   138    98   131 1   
@<TRIPOS>SUBSTRUCTURE
     1 GBW         1 TEMP              0 ****  ****    0 ROOT
