@<TRIPOS>MOLECULE
GBX
   68    72     1     0     0
SMALL
abcg2


@<TRIPOS>ATOM
      1 O2          -2.2810     3.2140     2.2570 o          1 GBX      -0.671100
      2 C1           5.0100    -0.9680     5.8530 c          1 GBX       0.726000
      3 C2          -1.8480     2.1690     2.7310 c          1 GBX       0.578100
      4 C3          -3.3000     1.4800     6.0940 c          1 GBX       0.714000
      5 N1           2.8450    -1.9480     6.5400 n8         1 GBX      -0.990200
      6 C7          -0.3580    -3.2630    -2.2180 c          1 GBX       0.496700
      7 N2          -0.1370     0.3440     2.6750 ns         1 GBX      -0.532900
      8 N3          -2.1990     1.6810     3.9130 ns         1 GBX      -0.440900
      9 CA1          3.5810    -1.3710     5.4270 c3         1 GBX       0.022500
     10 CB1          2.9130    -0.1540     4.7670 c3         1 GBX      -0.090400
     11 CG1          1.5240    -0.4610     4.2290 c3         1 GBX      -0.158400
     12 CD1          0.8970     0.6910     3.4780 c          1 GBX       0.607100
     13 OE1          1.2620     1.8490     3.5850 o          1 GBX      -0.591100
     14 CA2         -0.8710     1.3170     1.9090 c3         1 GBX       0.043700
     15 CB2         -1.6550     0.6230     0.8010 c3         1 GBX       0.052600
     16 SG2         -0.4850    -0.1970    -0.3270 ss         1 GBX      -0.390000
     17 CA3         -3.1240     2.3210     4.8130 c3         1 GBX      -0.059000
     18 O31         -2.6300     0.4330     6.1800 o          1 GBX      -0.728000
     19 O32         -4.1030     1.9400     6.9240 o          1 GBX      -0.728000
     20 O7           0.2110    -4.3220    -2.3230 o          1 GBX      -0.481100
     21 C8          -1.3490    -3.0700    -1.0590 c          1 GBX       0.461100
     22 O8          -1.3370    -3.8250    -0.1270 o          1 GBX      -0.440100
     23 C9          -2.3540    -1.9660    -1.2900 c6         1 GBX       0.083300
     24 O9          -3.1390    -2.3580    -2.3900 oh         1 GBX      -0.651000
     25 C10         -1.6080    -0.6990    -1.6750 c6         1 GBX       0.097600
     26 C14          0.6690    -2.3240    -4.2450 ca         1 GBX      -0.036000
     27 C15         -0.1520    -2.1290    -3.1380 ca         1 GBX      -0.152600
     28 C19         -0.7500    -0.8860    -2.8950 ca         1 GBX       0.025700
     29 C4          -1.0210     1.5020    -3.5480 ca         1 GBX      -0.073000
     30 C5          -0.7630     2.5170    -4.4030 ca         1 GBX      -0.106000
     31 C6           0.3290     3.3660    -6.4510 ca         1 GBX      -0.102000
     32 C20          1.1350     3.1480    -7.5570 ca         1 GBX      -0.106000
     33 C21          1.6830     1.8960    -7.7940 ca         1 GBX      -0.108000
     34 C22          1.9940    -0.4660    -7.1440 ca         1 GBX      -0.109000
     35 C9A          1.7500    -1.4810    -6.2880 ca         1 GBX      -0.082000
     36 C11          0.9180    -1.2920    -5.1360 ca         1 GBX      -0.055000
     37 C12          0.3410    -0.0200    -4.8940 ca         1 GBX       0.011000
     38 C13         -0.4890     0.1870    -3.7620 ca         1 GBX      -0.028000
     39 C16          0.0560     2.3280    -5.5590 ca         1 GBX      -0.018000
     40 C17          0.6090     1.0470    -5.7930 ca         1 GBX      -0.023000
     41 C18          1.4340     0.8350    -6.9260 ca         1 GBX      -0.023000
     42 HN11         2.8020    -1.2780     7.2970 hn         1 GBX       0.377000
     43 HN12         1.8890    -2.1390     6.2680 hn         1 GBX       0.377000
     44 HN2         -0.4100    -0.6260     2.6210 hn         1 GBX       0.317500
     45 HN3         -1.8160     0.8100     4.2540 hn         1 GBX       0.349500
     46 HA1          3.6750    -2.1480     4.6580 h1         1 GBX       0.033700
     47 HB11         2.8540     0.6620     5.4940 hc         1 GBX       0.059200
     48 HB12         3.5500     0.1930     3.9510 hc         1 GBX       0.059200
     49 HG11         1.5540    -1.3410     3.5800 hc         1 GBX       0.053700
     50 HG12         0.8410    -0.7170     5.0480 hc         1 GBX       0.053700
     51 HA2         -0.1690     2.0190     1.4510 h1         1 GBX       0.096700
     52 HB21        -2.3570    -0.0950     1.2280 h1         1 GBX       0.070700
     53 HB22        -2.2200     1.3650     0.2380 h1         1 GBX       0.070700
     54 HA31        -2.7690     3.3190     5.0880 h1         1 GBX       0.034700
     55 HA32        -4.0990     2.4580     4.3360 h1         1 GBX       0.034700
     56 H9          -2.9520    -1.7980    -0.3890 h1         1 GBX       0.075700
     57 HO9         -3.8330    -2.9510    -2.0830 ho         1 GBX       0.450000
     58 H10         -2.3420     0.0940    -1.8280 h1         1 GBX       0.091700
     59 H1           1.1160    -3.2950    -4.4160 ha         1 GBX       0.132000
     60 H4          -1.6390     1.7030    -2.6860 ha         1 GBX       0.125000
     61 H5          -1.1770     3.4990    -4.2150 ha         1 GBX       0.118000
     62 H6          -0.0930     4.3470    -6.2710 ha         1 GBX       0.113000
     63 H7           1.3400     3.9620    -8.2410 ha         1 GBX       0.107000
     64 H8           2.3160     1.7370    -8.6590 ha         1 GBX       0.107000
     65 H2           2.6240    -0.6200    -8.0110 ha         1 GBX       0.108000
     66 H9A          2.1810    -2.4600    -6.4580 ha         1 GBX       0.114000
     67 O11          5.2410    -0.8580     7.0720 o          1 GBX      -0.737500
     68 O12          5.8130    -0.7500     4.9210 o          1 GBX      -0.737500
@<TRIPOS>BOND
     1     1     3 2   
     2     2     9 1   
     3     2    67 1   
     4     2    68 1   
     5     3     8 1   
     6     3    14 1   
     7     4    17 1   
     8     4    18 1   
     9     4    19 1   
    10     5     9 1   
    11     5    42 1   
    12     5    43 1   
    13     6    20 2   
    14     6    21 1   
    15     6    27 1   
    16     7    12 1   
    17     7    14 1   
    18     7    44 1   
    19     8    17 1   
    20     8    45 1   
    21     9    10 1   
    22     9    46 1   
    23    10    11 1   
    24    10    47 1   
    25    10    48 1   
    26    11    12 1   
    27    11    49 1   
    28    11    50 1   
    29    12    13 2   
    30    14    15 1   
    31    14    51 1   
    32    15    16 1   
    33    15    52 1   
    34    15    53 1   
    35    16    25 1   
    36    17    54 1   
    37    17    55 1   
    38    21    22 2   
    39    21    23 1   
    40    23    24 1   
    41    23    25 1   
    42    23    56 1   
    43    24    57 1   
    44    25    28 1   
    45    25    58 1   
    46    26    27 ar  
    47    26    36 ar  
    48    26    59 1   
    49    27    28 ar  
    50    28    38 ar  
    51    29    30 ar  
    52    29    38 ar  
    53    29    60 1   
    54    30    39 ar  
    55    30    61 1   
    56    31    32 ar  
    57    31    39 ar  
    58    31    62 1   
    59    32    33 ar  
    60    32    63 1   
    61    33    41 ar  
    62    33    64 1   
    63    34    35 ar  
    64    34    41 ar  
    65    34    65 1   
    66    35    36 ar  
    67    35    66 1   
    68    36    37 ar  
    69    37    38 ar  
    70    37    40 ar  
    71    39    40 ar  
    72    40    41 ar  
@<TRIPOS>SUBSTRUCTURE
     1 GBX         1 TEMP              0 ****  ****    0 ROOT
