@<TRIPOS>MOLECULE
GBX
   68    72     1     0     0
SMALL
No Charge or Current Charge


@<TRIPOS>ATOM
      1 O2          -3.5440     2.8300     2.3490 o          1 GBX      -0.671100
      2 C1           4.2350    -2.5040     3.2790 c          1 GBX       0.726000
      3 C2          -2.7290     2.1210     2.9280 c          1 GBX       0.578100
      4 C3          -3.6830     1.9640     6.6490 c          1 GBX       0.714000
      5 N1           3.7980    -1.3690     5.6120 n8         1 GBX      -0.990200
      6 C7           0.3220    -3.1340    -1.6940 c          1 GBX       0.496700
      7 N2          -0.6800     0.6400     3.1060 ns         1 GBX      -0.532900
      8 N3          -2.8510     1.8380     4.2720 ns         1 GBX      -0.440900
      9 CA1          3.2250    -1.8060     4.2880 c3         1 GBX       0.022500
     10 CB1          2.4910    -0.6210     3.6050 c3         1 GBX      -0.090400
     11 CG1          1.2830    -0.0610     4.4040 c3         1 GBX      -0.158400
     12 CD1          0.5420     1.0220     3.6130 c          1 GBX       0.607100
     13 OE1          0.9800     2.1540     3.4760 o          1 GBX      -0.591100
     14 CA2         -1.5140     1.4750     2.1980 c3         1 GBX       0.043700
     15 CB2         -1.9730     0.6600     0.9680 c3         1 GBX       0.052600
     16 SG2         -0.5190    -0.0170     0.0330 ss         1 GBX      -0.390000
     17 CA3         -3.9320     2.3270     5.1580 c3         1 GBX      -0.059000
     18 O31         -2.9190     1.0440     6.9090 o          1 GBX      -0.728000
     19 O32         -4.2360     2.6410     7.5040 o          1 GBX      -0.728000
     20 O7           1.2410    -3.9310    -1.5120 o          1 GBX      -0.481100
     21 C8          -1.0350    -3.2760    -0.9060 c          1 GBX       0.461100
     22 O8          -1.3230    -4.2900    -0.2700 o          1 GBX      -0.440100
     23 C9          -2.0480    -2.1210    -1.0820 c6         1 GBX       0.083300
     24 O9          -3.0330    -2.4610    -2.0910 oh         1 GBX      -0.651000
     25 C10         -1.3690    -0.7690    -1.4330 c6         1 GBX       0.097600
     26 C14          1.4050    -2.1250    -3.7290 ca         1 GBX      -0.036000
     27 C15          0.4540    -2.0140    -2.6960 ca         1 GBX      -0.152600
     28 C19         -0.3620    -0.8600    -2.6000 ca         1 GBX       0.025700
     29 C4          -0.9130     1.4180    -3.4500 ca         1 GBX      -0.073000
     30 C5          -0.7240     2.4430    -4.3910 ca         1 GBX      -0.106000
     31 C6           0.3900     3.3210    -6.3710 ca         1 GBX      -0.102000
     32 C20          1.3280     3.1700    -7.4050 ca         1 GBX      -0.106000
     33 C21          2.0880     1.9930    -7.4980 ca         1 GBX      -0.108000
     34 C22          2.6760    -0.2130    -6.6470 ca         1 GBX      -0.109000
     35 C9A          2.5040    -1.2380    -5.7040 ca         1 GBX      -0.082000
     36 C11          1.5580    -1.0990    -4.6710 ca         1 GBX      -0.055000
     37 C12          0.7750     0.0700    -4.5730 ca         1 GBX       0.011000
     38 C13         -0.1800     0.2060    -3.5320 ca         1 GBX      -0.028000
     39 C16          0.2050     2.2910    -5.4290 ca         1 GBX      -0.018000
     40 C17          0.9620     1.1060    -5.5190 ca         1 GBX      -0.023000
     41 C18          1.9100     0.9610    -6.5580 ca         1 GBX      -0.023000
     42 HN11         4.5660    -0.7100     5.4360 hn         1 GBX       0.377000
     43 HN12         3.0990    -0.8090     6.1110 hn         1 GBX       0.377000
     44 HN2         -0.9410    -0.3310     3.2470 hn         1 GBX       0.317500
     45 HN3         -2.1330     1.2450     4.6760 hn         1 GBX       0.349500
     46 HA1          2.4600    -2.5600     4.5180 h1         1 GBX       0.033700
     47 HB11         3.2050     0.1880     3.4030 hc         1 GBX       0.059200
     48 HB12         2.1280    -0.9610     2.6260 hc         1 GBX       0.059200
     49 HG11         0.6020    -0.8910     4.6270 hc         1 GBX       0.053700
     50 HG12         1.6450     0.3840     5.3380 hc         1 GBX       0.053700
     51 HA2         -0.9060     2.3130     1.8340 h1         1 GBX       0.096700
     52 HB21        -2.6190    -0.1660     1.2920 h1         1 GBX       0.070700
     53 HB22        -2.5530     1.3070     0.2980 h1         1 GBX       0.070700
     54 HA31        -4.0050     3.4190     5.0680 h1         1 GBX       0.034700
     55 HA32        -4.8840     1.8790     4.8460 h1         1 GBX       0.034700
     56 H9          -2.5460    -2.0090    -0.1080 h1         1 GBX       0.075700
     57 HO9         -3.5500    -3.2310    -1.7560 ho         1 GBX       0.450000
     58 H10         -2.1890    -0.0950    -1.7040 h1         1 GBX       0.091700
     59 H1           2.0240    -3.0170    -3.8060 ha         1 GBX       0.132000
     60 H4          -1.6310     1.6030    -2.6590 ha         1 GBX       0.125000
     61 H5          -1.3030     3.3600    -4.3050 ha         1 GBX       0.118000
     62 H6          -0.1930     4.2370    -6.3030 ha         1 GBX       0.113000
     63 H7           1.4690     3.9670    -8.1320 ha         1 GBX       0.107000
     64 H8           2.8160     1.8850    -8.2990 ha         1 GBX       0.107000
     65 H2           3.4090    -0.3310    -7.4420 ha         1 GBX       0.108000
     66 H9A          3.1070    -2.1400    -5.7790 ha         1 GBX       0.114000
     67 O11          5.2070    -1.8680     2.8880 o          1 GBX      -0.737500
     68 O12          4.0400    -3.6750     2.9780 o          1 GBX      -0.737500
@<TRIPOS>BOND
     1     1     3 2   
     2     2     9 1   
     3     2    67 1   
     4     2    68 1   
     5     3     8 1   
     6     3    14 1   
     7     4    17 1   
     8     4    18 1   
     9     4    19 1   
    10     5     9 1   
    11     5    42 1   
    12     5    43 1   
    13     6    20 2   
    14     6    21 1   
    15     6    27 1   
    16     7    12 1   
    17     7    14 1   
    18     7    44 1   
    19     8    17 1   
    20     8    45 1   
    21     9    10 1   
    22     9    46 1   
    23    10    11 1   
    24    10    47 1   
    25    10    48 1   
    26    11    12 1   
    27    11    49 1   
    28    11    50 1   
    29    12    13 2   
    30    14    15 1   
    31    14    51 1   
    32    15    16 1   
    33    15    52 1   
    34    15    53 1   
    35    16    25 1   
    36    17    54 1   
    37    17    55 1   
    38    21    22 2   
    39    21    23 1   
    40    23    24 1   
    41    23    25 1   
    42    23    56 1   
    43    24    57 1   
    44    25    28 1   
    45    25    58 1   
    46    26    27 ar  
    47    26    36 ar  
    48    26    59 1   
    49    27    28 ar  
    50    28    38 ar  
    51    29    30 ar  
    52    29    38 ar  
    53    29    60 1   
    54    30    39 ar  
    55    30    61 1   
    56    31    32 ar  
    57    31    39 ar  
    58    31    62 1   
    59    32    33 ar  
    60    32    63 1   
    61    33    41 ar  
    62    33    64 1   
    63    34    35 ar  
    64    34    41 ar  
    65    34    65 1   
    66    35    36 ar  
    67    35    66 1   
    68    36    37 ar  
    69    37    38 ar  
    70    37    40 ar  
    71    39    40 ar  
    72    40    41 ar  
@<TRIPOS>SUBSTRUCTURE
     1 GBX         1 TEMP              0 ****  ****    0 ROOT
