@<TRIPOS>MOLECULE
GBZ
   68    69     1     0     0
SMALL
No Charge or Current Charge


@<TRIPOS>ATOM
      1 OBN          9.3900     1.8630     1.5950 o          1 GBZ      -0.776500
      2 CBA          8.3810     2.4350     1.9770 c          1 GBZ       0.709000
      3 OBO          8.3990     3.3970     2.7300 o          1 GBZ      -0.776500
      4 CAZ          7.0210     1.9580     1.4370 c3         1 GBZ      -0.198400
      5 CAY          6.6730     2.7070     0.1240 c3         1 GBZ      -0.049400
      6 CAW          5.2660     2.3890    -0.4530 c3         1 GBZ      -0.032300
      7 CAX          4.9310     3.3130    -1.6680 c          1 GBZ       0.712000
      8 OBG          5.5110     3.1240    -2.7300 o          1 GBZ      -0.761000
      9 OBF          4.0440     4.1450    -1.5360 o          1 GBZ      -0.761000
     10 NAV          5.1240     0.9630    -0.8370 ns         1 GBZ      -0.452900
     11 CAU          4.5380    -0.0130    -0.0710 c          1 GBZ       0.651100
     12 OBE          4.0290     0.1880     1.0210 o          1 GBZ      -0.671100
     13 N            4.5850    -1.2440    -0.6770 ns         1 GBZ      -0.474900
     14 CA           4.0300    -2.5010    -0.1140 c3         1 GBZ      -0.032300
     15 C            5.0180    -3.6880    -0.3510 c          1 GBZ       0.705000
     16 O            5.4050    -3.9150    -1.4900 o          1 GBZ      -0.740000
     17 OXT          5.4270    -4.3010     0.6260 o          1 GBZ      -0.740000
     18 CB           2.6180    -2.8230    -0.6730 c3         1 GBZ      -0.064400
     19 CAP          1.5320    -1.7790    -0.3230 c3         1 GBZ      -0.072400
     20 CAO          0.1230    -2.1930    -0.8190 c3         1 GBZ      -0.146400
     21 CAN         -1.0100    -1.2000    -0.4710 c          1 GBZ       0.603100
     22 OBB         -0.7710     0.0000    -0.3880 o          1 GBZ      -0.568100
     23 NAM         -2.3200    -1.7040    -0.2290 n          1 GBZ      -0.271400
     24 CBJ         -2.7700    -3.0220    -0.6060 ca         1 GBZ      -0.032000
     25 CBH         -3.2980    -3.8890     0.3740 ca         1 GBZ      -0.108500
     26 CBI         -3.6110    -5.2230     0.0590 ca         1 GBZ      -0.107000
     27 CBK         -3.3560    -5.7190    -1.2290 ca         1 GBZ      -0.118000
     28 CBM         -2.7700    -4.8850    -2.1940 ca         1 GBZ      -0.107000
     29 CBL         -2.4570    -3.5520    -1.8760 ca         1 GBZ      -0.108500
     30 CAL         -3.3130    -0.8070     0.4170 c3         1 GBZ       0.094000
     31 CAJ         -4.2510    -0.1330    -0.6040 c3         1 GBZ       0.075000
     32 NAI         -5.2470     0.7390     0.0410 ns         1 GBZ      -0.492900
     33 CAH         -6.5900     0.7770    -0.2840 c          1 GBZ       0.614700
     34 OAK         -7.0510     0.0650    -1.1650 o          1 GBZ      -0.595100
     35 CAE         -7.4580     1.7330     0.4870 ca         1 GBZ      -0.209600
     36 CAD         -8.8360     1.8360     0.1910 ca         1 GBZ      -0.006000
     37 CAC         -9.6120     2.7400     0.9310 ca         1 GBZ      -0.215000
     38 CAA         -8.9910     3.5010     1.9290 ca         1 GBZ       0.576200
     39 FAB         -9.7000     4.3830     2.6640 f          1 GBZ      -0.233200
     40 NAG         -7.6800     3.4190     2.2280 nb         1 GBZ      -0.711000
     41 CAF         -6.9340     2.5470     1.5130 ca         1 GBZ       0.393900
     42 H2           7.0690     0.8930     1.1780 hc         1 GBZ       0.023200
     43 H3           6.2200     2.2050     2.1450 hc         1 GBZ       0.023200
     44 H4           6.7290     3.7860     0.3130 hc         1 GBZ       0.035200
     45 H5           7.4350     2.4830    -0.6330 hc         1 GBZ       0.035200
     46 H6           4.5230     2.6120     0.3230 h1         1 GBZ       0.056700
     47 H8           5.4910     0.6800    -1.7360 hn         1 GBZ       0.273500
     48 H9           5.0500    -1.2970    -1.5740 hn         1 GBZ       0.260500
     49 H10          3.9440    -2.3830     0.9730 h1         1 GBZ       0.063700
     50 H12          2.6760    -2.9310    -1.7630 hc         1 GBZ       0.026700
     51 H13          2.3060    -3.7970    -0.2770 hc         1 GBZ       0.026700
     52 H14          1.5030    -1.6370     0.7650 hc         1 GBZ       0.064700
     53 H15          1.8000    -0.8120    -0.7660 hc         1 GBZ       0.064700
     54 H16          0.1380    -2.3030    -1.9090 hc         1 GBZ       0.052700
     55 H17         -0.1380    -3.1920    -0.4520 hc         1 GBZ       0.052700
     56 H18         -3.4640    -3.5370     1.3900 ha         1 GBZ       0.125500
     57 H19         -4.0370    -5.8750     0.8180 ha         1 GBZ       0.109000
     58 H20         -3.5940    -6.7520    -1.4730 ha         1 GBZ       0.103000
     59 H21         -2.5510    -5.2720    -3.1870 ha         1 GBZ       0.109000
     60 H22         -2.0030    -2.9210    -2.6360 ha         1 GBZ       0.125500
     61 H23         -3.9240    -1.3860     1.1200 h1         1 GBZ       0.050200
     62 H24         -2.7990    -0.0370     1.0070 h1         1 GBZ       0.050200
     63 H25         -3.6550     0.4700    -1.3020 h1         1 GBZ       0.069700
     64 H26         -4.7580    -0.9160    -1.1830 h1         1 GBZ       0.069700
     65 H27         -4.9280     1.3640     0.7720 hn         1 GBZ       0.311500
     66 H28         -9.2950     1.2320    -0.5920 ha         1 GBZ       0.145000
     67 H29        -10.6750     2.8550     0.7400 ha         1 GBZ       0.138000
     68 H30         -5.8800     2.5120     1.7860 h4         1 GBZ       0.036100
@<TRIPOS>BOND
     1     1     2 1   
     2     2     3 1   
     3     2     4 1   
     4     4     5 1   
     5     4    42 1   
     6     4    43 1   
     7     5     6 1   
     8     5    44 1   
     9     5    45 1   
    10     6     7 1   
    11     6    10 1   
    12     6    46 1   
    13     7     8 1   
    14     7     9 1   
    15    10    11 1   
    16    10    47 1   
    17    11    12 2   
    18    11    13 1   
    19    13    14 1   
    20    13    48 1   
    21    14    15 1   
    22    14    18 1   
    23    14    49 1   
    24    15    16 1   
    25    15    17 1   
    26    18    19 1   
    27    18    50 1   
    28    18    51 1   
    29    19    20 1   
    30    19    52 1   
    31    19    53 1   
    32    20    21 1   
    33    20    54 1   
    34    20    55 1   
    35    21    22 2   
    36    21    23 1   
    37    23    24 1   
    38    23    30 1   
    39    24    25 ar  
    40    24    29 ar  
    41    25    26 ar  
    42    25    56 1   
    43    26    27 ar  
    44    26    57 1   
    45    27    28 ar  
    46    27    58 1   
    47    28    29 ar  
    48    28    59 1   
    49    29    60 1   
    50    30    31 1   
    51    30    61 1   
    52    30    62 1   
    53    31    32 1   
    54    31    63 1   
    55    31    64 1   
    56    32    33 1   
    57    32    65 1   
    58    33    34 2   
    59    33    35 1   
    60    35    36 ar  
    61    35    41 ar  
    62    36    37 ar  
    63    36    66 1   
    64    37    38 ar  
    65    37    67 1   
    66    38    39 1   
    67    38    40 ar  
    68    40    41 ar  
    69    41    68 1   
@<TRIPOS>SUBSTRUCTURE
     1 GBZ         1 TEMP              0 ****  ****    0 ROOT
