@<TRIPOS>MOLECULE
GBZ
   68    69     1     0     0
SMALL
abcg2


@<TRIPOS>ATOM
      1 OBN          9.3780     1.7380    -3.1450 o          1 GBZ      -0.776500
      2 CBA          8.6540     2.4660    -2.4310 c          1 GBZ       0.709000
      3 OBO          8.4680     3.6900    -2.5820 o          1 GBZ      -0.776500
      4 CAZ          7.9370     1.7640    -1.2650 c3         1 GBZ      -0.198400
      5 CAY          7.0550     2.6530    -0.4030 c3         1 GBZ      -0.049400
      6 CAW          6.3780     1.9180     0.7560 c3         1 GBZ      -0.032300
      7 CAX          5.6120     2.9270     1.6460 c          1 GBZ       0.712000
      8 OBG          4.3700     2.9400     1.5720 o          1 GBZ      -0.761000
      9 OBF          6.3290     3.6720     2.3480 o          1 GBZ      -0.761000
     10 NAV          5.5400     0.8620     0.2380 ns         1 GBZ      -0.452900
     11 CAU          4.9700    -0.0400     1.0780 c          1 GBZ       0.651100
     12 OBE          5.3510    -0.1960     2.2350 o          1 GBZ      -0.671100
     13 N            3.9380    -0.7590     0.5450 ns         1 GBZ      -0.474900
     14 CA           3.5690    -2.0230     1.1420 c3         1 GBZ      -0.032300
     15 C            4.6660    -3.1100     1.0160 c          1 GBZ       0.705000
     16 O            5.6400    -2.8700     0.2800 o          1 GBZ      -0.740000
     17 OXT          4.4580    -4.1540     1.6690 o          1 GBZ      -0.740000
     18 CB           2.2560    -2.5150     0.5340 c3         1 GBZ      -0.064400
     19 CAP          1.0690    -1.6020     0.8100 c3         1 GBZ      -0.072400
     20 CAO         -0.2080    -2.1640     0.2030 c3         1 GBZ      -0.146400
     21 CAN         -1.4420    -1.3600     0.5510 c          1 GBZ       0.603100
     22 OBB         -1.3790    -0.2820     1.1200 o          1 GBZ      -0.568100
     23 NAM         -2.6440    -1.9110     0.2200 n          1 GBZ      -0.271400
     24 CBJ         -2.7570    -3.1050    -0.5450 ca         1 GBZ      -0.032000
     25 CBH         -3.0780    -4.3020     0.0850 ca         1 GBZ      -0.108500
     26 CBI         -3.2150    -5.4630    -0.6610 ca         1 GBZ      -0.107000
     27 CBK         -3.0290    -5.4330    -2.0380 ca         1 GBZ      -0.118000
     28 CBM         -2.7120    -4.2370    -2.6670 ca         1 GBZ      -0.107000
     29 CBL         -2.5810    -3.0720    -1.9240 ca         1 GBZ      -0.108500
     30 CAL         -3.8750    -1.2340     0.5850 c3         1 GBZ       0.094000
     31 CAJ         -4.3150    -0.2330    -0.4760 c3         1 GBZ       0.075000
     32 NAI         -5.5570     0.3850    -0.0640 ns         1 GBZ      -0.492900
     33 CAH         -6.2300     1.2330    -0.8530 c          1 GBZ       0.614700
     34 OAK         -5.8690     1.5170    -1.9860 o          1 GBZ      -0.595100
     35 CAE         -7.4730     1.8290    -0.2770 ca         1 GBZ      -0.209600
     36 CAD         -8.4800     2.2600    -1.1410 ca         1 GBZ      -0.006000
     37 CAC         -9.6240     2.8340    -0.6260 ca         1 GBZ      -0.215000
     38 CAA         -9.6830     2.9630     0.7530 ca         1 GBZ       0.576200
     39 FAB        -10.7650     3.5140     1.2990 f          1 GBZ      -0.233200
     40 NAG         -8.7550     2.5940     1.5890 nb         1 GBZ      -0.711000
     41 CAF         -7.6610     2.0330     1.0820 ca         1 GBZ       0.393900
     42 H2           7.3520     0.9350    -1.6760 hc         1 GBZ       0.023200
     43 H3           8.6970     1.2840    -0.6370 hc         1 GBZ       0.023200
     44 H4           7.6500     3.4630     0.0200 hc         1 GBZ       0.035200
     45 H5           6.2890     3.1330    -1.0220 hc         1 GBZ       0.035200
     46 H6           7.1620     1.4600     1.3670 h1         1 GBZ       0.056700
     47 H8           5.0320     1.0840    -0.6050 hn         1 GBZ       0.273500
     48 H9           3.8750    -0.7450    -0.4630 hn         1 GBZ       0.260500
     49 H10          3.3970    -1.8540     2.2090 h1         1 GBZ       0.063700
     50 H12          2.3840    -2.6460    -0.5480 hc         1 GBZ       0.026700
     51 H13          2.0510    -3.5080     0.9390 hc         1 GBZ       0.026700
     52 H14          0.9480    -1.4940     1.8920 hc         1 GBZ       0.064700
     53 H15          1.2640    -0.6020     0.4190 hc         1 GBZ       0.064700
     54 H16         -0.1110    -2.2120    -0.8860 hc         1 GBZ       0.052700
     55 H17         -0.3510    -3.2000     0.5230 hc         1 GBZ       0.052700
     56 H18         -3.2120    -4.3220     1.1590 ha         1 GBZ       0.125500
     57 H19         -3.4620    -6.3930    -0.1670 ha         1 GBZ       0.109000
     58 H20         -3.1340    -6.3400    -2.6190 ha         1 GBZ       0.103000
     59 H21         -2.5710    -4.2080    -3.7400 ha         1 GBZ       0.109000
     60 H22         -2.3350    -2.1370    -2.4120 ha         1 GBZ       0.125500
     61 H23         -4.6490    -1.9920     0.7220 h1         1 GBZ       0.050200
     62 H24         -3.7390    -0.7320     1.5430 h1         1 GBZ       0.050200
     63 H25         -3.5410     0.5260    -0.6110 h1         1 GBZ       0.069700
     64 H26         -4.4490    -0.7400    -1.4350 h1         1 GBZ       0.069700
     65 H27         -5.9490     0.1160     0.8240 hn         1 GBZ       0.311500
     66 H28         -8.3710     2.1410    -2.2100 ha         1 GBZ       0.145000
     67 H29        -10.4310     3.1720    -1.2600 ha         1 GBZ       0.138000
     68 H30         -6.9010     1.7590     1.8050 h4         1 GBZ       0.036100
@<TRIPOS>BOND
     1     1     2 1   
     2     2     3 1   
     3     2     4 1   
     4     4     5 1   
     5     4    42 1   
     6     4    43 1   
     7     5     6 1   
     8     5    44 1   
     9     5    45 1   
    10     6     7 1   
    11     6    10 1   
    12     6    46 1   
    13     7     8 1   
    14     7     9 1   
    15    10    11 1   
    16    10    47 1   
    17    11    12 2   
    18    11    13 1   
    19    13    14 1   
    20    13    48 1   
    21    14    15 1   
    22    14    18 1   
    23    14    49 1   
    24    15    16 1   
    25    15    17 1   
    26    18    19 1   
    27    18    50 1   
    28    18    51 1   
    29    19    20 1   
    30    19    52 1   
    31    19    53 1   
    32    20    21 1   
    33    20    54 1   
    34    20    55 1   
    35    21    22 2   
    36    21    23 1   
    37    23    24 1   
    38    23    30 1   
    39    24    25 ar  
    40    24    29 ar  
    41    25    26 ar  
    42    25    56 1   
    43    26    27 ar  
    44    26    57 1   
    45    27    28 ar  
    46    27    58 1   
    47    28    29 ar  
    48    28    59 1   
    49    29    60 1   
    50    30    31 1   
    51    30    61 1   
    52    30    62 1   
    53    31    32 1   
    54    31    63 1   
    55    31    64 1   
    56    32    33 1   
    57    32    65 1   
    58    33    34 2   
    59    33    35 1   
    60    35    36 ar  
    61    35    41 ar  
    62    36    37 ar  
    63    36    66 1   
    64    37    38 ar  
    65    37    67 1   
    66    38    39 1   
    67    38    40 ar  
    68    40    41 ar  
    69    41    68 1   
@<TRIPOS>SUBSTRUCTURE
     1 GBZ         1 TEMP              0 ****  ****    0 ROOT
