@<TRIPOS>MOLECULE
GC0
   94   100     1     0     0
SMALL
No Charge or Current Charge


@<TRIPOS>ATOM
      1 C10         25.0630    -2.1010    19.0160 c3         1 GC0      -0.115100
      2 C15         29.3500     5.7800    22.3770 ca         1 GC0      -0.052000
      3 C17         31.4780     7.1880    22.6670 c          1 GC0       0.615700
      4 C20         31.5330     4.8240    21.7470 ca         1 GC0      -0.079000
      5 C21         30.8930     3.6270    21.3770 ca         1 GC0       0.114100
      6 C22         29.5200     3.5540    21.5380 ca         1 GC0      -0.146200
      7 C24         29.3110     1.4550    20.3480 c6         1 GC0       0.068300
      8 C04         23.4850     1.8340    20.3310 cc         1 GC0      -0.188000
      9 C16         30.7690     5.9130    22.2680 ca         1 GC0      -0.140600
     10 C05         22.3120     1.1690    19.9550 cc         1 GC0       0.263300
     11 C06         21.0350     1.8940    19.6470 c3         1 GC0      -0.121400
     12 C32         33.2400     0.1080    16.0680 c3         1 GC0       0.147900
     13 C33         32.0590    -2.2570    14.8450 ca         1 GC0      -0.150000
     14 C09         24.3280    -1.6960    20.3090 c3         1 GC0       0.080600
     15 C12         27.3960     2.9790    21.4100 cc         1 GC0       0.490400
     16 O19         32.6860     7.3290    22.5620 o          1 GC0      -0.601100
     17 C03         24.4430     0.8750    20.5300 cd         1 GC0      -0.233600
     18 C14         28.7520     4.5720    21.9830 ca         1 GC0       0.104400
     19 C25         29.0960     1.7070    18.8280 c3         1 GC0      -0.093400
     20 C26         29.1820     0.4330    17.9580 c3         1 GC0      -0.100400
     21 C27         28.9810     0.7070    16.4520 c3         1 GC0       0.084600
     22 C29         29.8650    -1.3450    15.2780 ca         1 GC0      -0.089200
     23 C30         31.2650    -1.2040    15.3620 ca         1 GC0       0.139100
     24 C34         31.4670    -3.4130    14.2620 ca         1 GC0      -0.130600
     25 C35         32.3520    -4.5170    13.7190 c          1 GC0       0.616700
     26 C38         30.0510    -3.5000    14.2060 ca         1 GC0      -0.060000
     27 C39         29.2810    -2.4510    14.7230 ca         1 GC0       0.100400
     28 C41         27.6390    -1.2030    15.3460 cc         1 GC0       0.480400
     29 C43         25.1660    -1.3200    15.4970 c          1 GC0       0.650700
     30 C44         23.9970    -0.4490    15.8000 cc         1 GC0      -0.233600
     31 C45         22.7200    -0.9350    15.9140 cd         1 GC0      -0.164000
     32 C46         21.8720     0.1380    16.2290 cd         1 GC0       0.256300
     33 C47         20.3900     0.0640    16.4680 c3         1 GC0      -0.121400
     34 C51         25.5120     2.2860    17.3220 c3         1 GC0      -0.111100
     35 C53         30.8310     1.2930    20.7250 c6         1 GC0       0.143600
     36 N07         22.4420    -0.1380    19.9050 nd         1 GC0      -0.504800
     37 N08         23.7730    -0.3310    20.2580 na         1 GC0       0.174800
     38 N11         26.1910     2.3940    21.1090 ns         1 GC0      -0.415400
     39 N13         27.4010     4.2330    21.9110 nd         1 GC0      -0.586100
     40 N18         30.7420     8.2080    23.1580 nt         1 GC0      -0.603000
     41 N23         28.7160     2.5370    21.1780 na         1 GC0      -0.169600
     42 N28         28.8240    -0.5380    15.6730 na         1 GC0      -0.191600
     43 N36         31.7650    -5.6040    13.1710 nt         1 GC0      -0.602000
     44 N40         27.8920    -2.3790    14.7530 nd         1 GC0      -0.562100
     45 N48         22.5160     1.2830    16.2960 nc         1 GC0      -0.510800
     46 N49         23.8260     0.9280    16.0330 na         1 GC0       0.136800
     47 O01         26.6400     0.1590    21.1050 o          1 GC0      -0.575100
     48 O31         31.8190    -0.0740    15.9320 os         1 GC0      -0.356100
     49 O37         33.5710    -4.4640    13.7570 o          1 GC0      -0.606100
     50 O52         25.0380    -2.5030    15.2160 o          1 GC0      -0.494100
     51 O54         31.5510     2.5600    20.8050 os         1 GC0      -0.322100
     52 H1          25.4930    -3.1040    19.1180 hc         1 GC0       0.046367
     53 H2          24.3630    -2.1130    18.1730 hc         1 GC0       0.046367
     54 H3          25.8740    -1.3980    18.7890 hc         1 GC0       0.046367
     55 H4          28.7180     6.5880    22.7330 ha         1 GC0       0.131000
     56 H5          32.6110     4.9070    21.6250 ha         1 GC0       0.153000
     57 H6          28.8410     0.5020    20.6050 h1         1 GC0       0.090700
     58 H7          23.5700     2.9120    20.4260 ha         1 GC0       0.146000
     59 H8          20.2050     1.1930    19.4980 hc         1 GC0       0.051700
     60 H9          20.7650     2.5670    20.4680 hc         1 GC0       0.051700
     61 H10         21.1410     2.4930    18.7360 hc         1 GC0       0.051700
     62 H11         33.4550     1.0690    16.5530 h1         1 GC0       0.047700
     63 H12         33.6780    -0.6880    16.6840 h1         1 GC0       0.047700
     64 H13         33.7300     0.1070    15.0860 h1         1 GC0       0.047700
     65 H14         33.1430    -2.1940    14.8860 ha         1 GC0       0.142000
     66 H15         23.5070    -2.4000    20.4910 h1         1 GC0       0.083700
     67 H16         25.0120    -1.7700    21.1630 h1         1 GC0       0.083700
     68 H17         29.8180     2.4500    18.4650 hc         1 GC0       0.059700
     69 H18         28.1060     2.1510    18.6740 hc         1 GC0       0.059700
     70 H19         28.4130    -0.2740    18.2960 hc         1 GC0       0.056200
     71 H20         30.1500    -0.0590    18.1070 hc         1 GC0       0.056200
     72 H21         29.8210     1.2910    16.0570 h1         1 GC0       0.066700
     73 H22         28.0850     1.3230    16.3120 h1         1 GC0       0.066700
     74 H23         29.5430    -4.3580    13.7750 ha         1 GC0       0.136000
     75 H24         22.4120    -1.9700    15.8050 ha         1 GC0       0.159000
     76 H25         19.9450     1.0620    16.5610 hc         1 GC0       0.051700
     77 H26         19.8890    -0.4520    15.6410 hc         1 GC0       0.051700
     78 H27         20.1750    -0.4880    17.3900 hc         1 GC0       0.051700
     79 H28         24.3390     2.9230    15.6260 h1         1 GC0       0.066200
     80 H29         25.5840     1.7570    15.2060 h1         1 GC0       0.066200
     81 H30         26.3050     3.0350    17.2040 hc         1 GC0       0.048033
     82 H31         24.7790     2.6810    18.0330 hc         1 GC0       0.048033
     83 H32         25.9470     1.3740    17.7470 hc         1 GC0       0.048033
     84 H33         30.8870     0.8180    21.7150 h1         1 GC0       0.076200
     85 H34         31.3440     0.6280    20.0170 h1         1 GC0       0.076200
     86 H35         25.4020     3.0190    21.0930 hn         1 GC0       0.352500
     87 H36         31.2060     9.0630    23.4270 hn         1 GC0       0.314000
     88 H37         29.7430     8.1160    23.2580 hn         1 GC0       0.314000
     89 H38         32.3470    -6.3430    12.8070 hn         1 GC0       0.314500
     90 H39         30.7610    -5.6740    13.1250 hn         1 GC0       0.314500
     91 H40         26.3420     0.2460    15.9450 hn         1 GC0       0.328500
     92 C02         25.8620     1.0790    20.9310 c          1 GC0       0.652700
     93 N42         26.3850    -0.6950    15.6000 ns         1 GC0      -0.432400
     94 C50         24.8350     2.0050    15.9660 c3         1 GC0       0.085600
@<TRIPOS>BOND
     1     1    14 1   
     2     1    52 1   
     3     1    53 1   
     4     1    54 1   
     5     2     9 ar  
     6     2    18 ar  
     7     2    55 1   
     8     3     9 1   
     9     3    16 2   
    10     3    40 1   
    11     4     5 ar  
    12     4     9 ar  
    13     4    56 1   
    14     5     6 ar  
    15     5    51 1   
    16     6    18 ar  
    17     6    41 1   
    18     7    19 1   
    19     7    35 1   
    20     7    41 1   
    21     7    57 1   
    22     8    10 1   
    23     8    17 2   
    24     8    58 1   
    25    10    11 1   
    26    10    36 2   
    27    11    59 1   
    28    11    60 1   
    29    11    61 1   
    30    12    48 1   
    31    12    62 1   
    32    12    63 1   
    33    12    64 1   
    34    13    23 ar  
    35    13    24 ar  
    36    13    65 1   
    37    14    37 1   
    38    14    66 1   
    39    14    67 1   
    40    15    38 1   
    41    15    39 2   
    42    15    41 1   
    43    17    37 1   
    44    17    92 1   
    45    18    39 1   
    46    19    20 1   
    47    19    68 1   
    48    19    69 1   
    49    20    21 1   
    50    20    70 1   
    51    20    71 1   
    52    21    42 1   
    53    21    72 1   
    54    21    73 1   
    55    22    23 ar  
    56    22    27 ar  
    57    22    42 1   
    58    23    48 1   
    59    24    25 1   
    60    24    26 ar  
    61    25    43 1   
    62    25    49 2   
    63    26    27 ar  
    64    26    74 1   
    65    27    44 1   
    66    28    42 1   
    67    28    44 2   
    68    28    93 1   
    69    29    30 1   
    70    29    50 2   
    71    29    93 1   
    72    30    31 2   
    73    30    46 1   
    74    31    32 1   
    75    31    75 1   
    76    32    33 1   
    77    32    45 2   
    78    33    76 1   
    79    33    77 1   
    80    33    78 1   
    81    34    81 1   
    82    34    82 1   
    83    34    83 1   
    84    34    94 1   
    85    35    51 1   
    86    35    84 1   
    87    35    85 1   
    88    36    37 1   
    89    38    86 1   
    90    38    92 1   
    91    40    87 1   
    92    40    88 1   
    93    43    89 1   
    94    43    90 1   
    95    45    46 1   
    96    46    94 1   
    97    47    92 2   
    98    79    94 1   
    99    80    94 1   
   100    91    93 1   
@<TRIPOS>SUBSTRUCTURE
     1 GC0         1 TEMP              0 ****  ****    0 ROOT
