@<TRIPOS>MOLECULE
GC0
   94   100     1     0     0
SMALL
abcg2


@<TRIPOS>ATOM
      1 C10         25.1270    -1.3430    19.2990 c3         1 GC0      -0.115100
      2 C15         29.6230     5.6720    22.3370 ca         1 GC0      -0.052000
      3 C17         31.9580     6.4600    22.8640 c          1 GC0       0.615700
      4 C20         31.5690     4.2500    21.8280 ca         1 GC0      -0.079000
      5 C21         30.7560     3.2560    21.3300 ca         1 GC0       0.114100
      6 C22         29.3980     3.5040    21.3670 ca         1 GC0      -0.146200
      7 C24         28.8290     1.4780    20.2070 c6         1 GC0       0.068300
      8 C04         23.1150     2.2920    20.4590 cc         1 GC0      -0.188000
      9 C16         30.9980     5.4490    22.3150 ca         1 GC0      -0.140600
     10 C05         22.0250     1.4790    20.1200 cc         1 GC0       0.263300
     11 C06         20.6560     1.8940    19.7100 c3         1 GC0      -0.121400
     12 C32         33.1800     0.1620    16.1530 c3         1 GC0       0.147900
     13 C33         32.1770    -2.0620    14.7310 ca         1 GC0      -0.150000
     14 C09         24.3280    -1.1150    20.5710 c3         1 GC0       0.080600
     15 C12         27.2590     3.3660    21.1290 cc         1 GC0       0.490400
     16 O19         33.0660     6.1280    23.2610 o          1 GC0      -0.601100
     17 C03         24.1440     1.4120    20.7310 cd         1 GC0      -0.233600
     18 C14         28.7990     4.6620    21.8360 ca         1 GC0       0.104400
     19 C25         28.8720     1.7180    18.6980 c3         1 GC0      -0.093400
     20 C26         29.0300     0.4170    17.9220 c3         1 GC0      -0.100400
     21 C27         28.8840     0.6390    16.4230 c3         1 GC0       0.084600
     22 C29         29.9790    -1.3220    15.2310 ca         1 GC0      -0.089200
     23 C30         31.3610    -1.1200    15.3330 ca         1 GC0       0.139100
     24 C34         31.6460    -3.1880    14.0720 ca         1 GC0      -0.130600
     25 C35         32.6250    -4.1350    13.4540 c          1 GC0       0.616700
     26 C38         30.2800    -3.3840    13.9760 ca         1 GC0      -0.060000
     27 C39         29.4500    -2.4340    14.5690 ca         1 GC0       0.100400
     28 C41         27.7960    -1.3360    15.2960 cc         1 GC0       0.480400
     29 C43         25.3840    -1.1710    14.9260 c          1 GC0       0.650700
     30 C44         24.1380    -0.6540    15.5430 cc         1 GC0      -0.233600
     31 C45         22.9860    -1.3720    15.7710 cd         1 GC0      -0.164000
     32 C46         22.1110    -0.4630    16.3860 cd         1 GC0       0.256300
     33 C47         20.7350    -0.7150    16.8960 c3         1 GC0      -0.121400
     34 C51         25.1490     2.3330    17.2410 c3         1 GC0      -0.111100
     35 C53         30.1750     1.0640    20.8260 c6         1 GC0       0.143600
     36 N07         22.3750     0.2030    20.1800 nd         1 GC0      -0.504800
     37 N08         23.6410     0.1670    20.5650 na         1 GC0       0.174800
     38 N11         26.0210     2.8800    20.7440 ns         1 GC0      -0.415400
     39 N13         27.4380     4.5370    21.6830 nd         1 GC0      -0.586100
     40 N18         31.5320     7.7340    22.9020 nt         1 GC0      -0.603000
     41 N23         28.4190     2.6840    20.9150 na         1 GC0      -0.169600
     42 N28         28.8900    -0.6090    15.6770 na         1 GC0      -0.191600
     43 N36         32.2010    -5.3990    13.2800 nt         1 GC0      -0.602000
     44 N40         28.0820    -2.4170    14.6340 nd         1 GC0      -0.562100
     45 N48         22.6870     0.7240    16.4950 nc         1 GC0      -0.510800
     46 N49         23.9110     0.6000    15.9960 na         1 GC0       0.136800
     47 O01         26.1840     0.9030    21.8300 o          1 GC0      -0.575100
     48 O31         31.7870    -0.0370    16.0030 os         1 GC0      -0.356100
     49 O37         33.7430    -3.7650    13.1230 o          1 GC0      -0.606100
     50 O52         25.3520    -1.8030    13.8970 o          1 GC0      -0.494100
     51 O54         31.1770     2.0850    20.8040 os         1 GC0      -0.322100
     52 H1          25.5960    -2.3260    19.3300 hc         1 GC0       0.046367
     53 H2          24.4820    -1.3030    18.4210 hc         1 GC0       0.046367
     54 H3          25.9190    -0.6020    19.1790 hc         1 GC0       0.046367
     55 H4          29.1930     6.5760    22.7460 ha         1 GC0       0.131000
     56 H5          32.6430     4.1250    21.8370 ha         1 GC0       0.153000
     57 H6          28.1270     0.6730    20.4280 h1         1 GC0       0.090700
     58 H7          23.1300     3.3690    20.5250 ha         1 GC0       0.146000
     59 H8          19.9720     1.0470    19.7260 hc         1 GC0       0.051700
     60 H9          20.2610     2.6660    20.3690 hc         1 GC0       0.051700
     61 H10         20.6600     2.2990    18.6960 hc         1 GC0       0.051700
     62 H11         33.2980     1.0690    16.7390 h1         1 GC0       0.047700
     63 H12         33.6530    -0.6680    16.6830 h1         1 GC0       0.047700
     64 H13         33.6760     0.2960    15.1880 h1         1 GC0       0.047700
     65 H14         33.2520    -1.9520    14.7670 ha         1 GC0       0.142000
     66 H15         23.5500    -1.8690    20.6730 h1         1 GC0       0.083700
     67 H16         24.9620    -1.1750    21.4500 h1         1 GC0       0.083700
     68 H17         29.6730     2.4200    18.4490 hc         1 GC0       0.059700
     69 H18         27.9350     2.1970    18.4020 hc         1 GC0       0.059700
     70 H19         28.2700    -0.2950    18.2590 hc         1 GC0       0.056200
     71 H20         30.0010    -0.0410    18.1220 hc         1 GC0       0.056200
     72 H21         29.6800     1.2720    16.0410 h1         1 GC0       0.066700
     73 H22         27.9510     1.1570    16.1980 h1         1 GC0       0.066700
     74 H23         29.8440    -4.2210    13.4480 ha         1 GC0       0.136000
     75 H24         22.8130    -2.4120    15.5470 ha         1 GC0       0.159000
     76 H25         20.1490     0.2030    16.9160 hc         1 GC0       0.051700
     77 H26         20.2150    -1.4410    16.2730 hc         1 GC0       0.051700
     78 H27         20.7610    -1.1110    17.9120 hc         1 GC0       0.051700
     79 H28         24.1870     2.5350    15.3180 h1         1 GC0       0.066200
     80 H29         25.6170     1.5300    15.2910 h1         1 GC0       0.066200
     81 H30         25.8330     3.1710    17.1100 hc         1 GC0       0.048033
     82 H31         24.2840     2.6840    17.8010 hc         1 GC0       0.048033
     83 H32         25.6530     1.5740    17.8400 hc         1 GC0       0.048033
     84 H33         30.0070     0.7440    21.8590 h1         1 GC0       0.076200
     85 H34         30.5870     0.2210    20.2750 h1         1 GC0       0.076200
     86 H35         25.4080     3.5390    20.2860 hn         1 GC0       0.352500
     87 H36         32.1540     8.4490    23.2420 hn         1 GC0       0.314000
     88 H37         30.7080     8.0450    22.4180 hn         1 GC0       0.314000
     89 H38         32.8330    -6.0800    12.8920 hn         1 GC0       0.314500
     90 H39         31.3630    -5.7500    13.7090 hn         1 GC0       0.314500
     91 H40         26.4160    -0.4880    16.5510 hn         1 GC0       0.328500
     92 C02         25.5270     1.6780    21.1630 c          1 GC0       0.652700
     93 N42         26.5260    -0.9100    15.6400 ns         1 GC0      -0.432400
     94 C50         24.7430     1.7880    15.8850 c3         1 GC0       0.085600
@<TRIPOS>BOND
     1     1    14 1   
     2     1    52 1   
     3     1    53 1   
     4     1    54 1   
     5     2     9 ar  
     6     2    18 ar  
     7     2    55 1   
     8     3     9 1   
     9     3    16 2   
    10     3    40 1   
    11     4     5 ar  
    12     4     9 ar  
    13     4    56 1   
    14     5     6 ar  
    15     5    51 1   
    16     6    18 ar  
    17     6    41 1   
    18     7    19 1   
    19     7    35 1   
    20     7    41 1   
    21     7    57 1   
    22     8    10 1   
    23     8    17 2   
    24     8    58 1   
    25    10    11 1   
    26    10    36 2   
    27    11    59 1   
    28    11    60 1   
    29    11    61 1   
    30    12    48 1   
    31    12    62 1   
    32    12    63 1   
    33    12    64 1   
    34    13    23 ar  
    35    13    24 ar  
    36    13    65 1   
    37    14    37 1   
    38    14    66 1   
    39    14    67 1   
    40    15    38 1   
    41    15    39 2   
    42    15    41 1   
    43    17    37 1   
    44    17    92 1   
    45    18    39 1   
    46    19    20 1   
    47    19    68 1   
    48    19    69 1   
    49    20    21 1   
    50    20    70 1   
    51    20    71 1   
    52    21    42 1   
    53    21    72 1   
    54    21    73 1   
    55    22    23 ar  
    56    22    27 ar  
    57    22    42 1   
    58    23    48 1   
    59    24    25 1   
    60    24    26 ar  
    61    25    43 1   
    62    25    49 2   
    63    26    27 ar  
    64    26    74 1   
    65    27    44 1   
    66    28    42 1   
    67    28    44 2   
    68    28    93 1   
    69    29    30 1   
    70    29    50 2   
    71    29    93 1   
    72    30    31 2   
    73    30    46 1   
    74    31    32 1   
    75    31    75 1   
    76    32    33 1   
    77    32    45 2   
    78    33    76 1   
    79    33    77 1   
    80    33    78 1   
    81    34    81 1   
    82    34    82 1   
    83    34    83 1   
    84    34    94 1   
    85    35    51 1   
    86    35    84 1   
    87    35    85 1   
    88    36    37 1   
    89    38    86 1   
    90    38    92 1   
    91    40    87 1   
    92    40    88 1   
    93    43    89 1   
    94    43    90 1   
    95    45    46 1   
    96    46    94 1   
    97    47    92 2   
    98    79    94 1   
    99    80    94 1   
   100    91    93 1   
@<TRIPOS>SUBSTRUCTURE
     1 GC0         1 TEMP              0 ****  ****    0 ROOT
