@<TRIPOS>MOLECULE
GC1
   21    21     1     0     0
SMALL
No Charge or Current Charge


@<TRIPOS>ATOM
      1 O4           1.0660    -2.2380    -2.9650 oh         1 GC1      -0.684000
      2 C1           3.9180     0.6120    -1.6410 c6         1 GC1       0.155600
      3 C2           4.4630    -0.5830    -2.4760 c6         1 GC1       0.105300
      4 C3           3.2850    -1.2630    -3.2310 c6         1 GC1       0.074300
      5 C4           2.1570    -1.6620    -2.2340 c6         1 GC1       0.125300
      6 C5           1.7120    -0.4180    -1.4080 c6         1 GC1       0.022300
      7 C6           0.5510    -0.7970    -0.4220 c          1 GC1       0.744000
      8 O2           5.4640    -0.1640    -3.4180 oh         1 GC1      -0.726000
      9 O3           3.7480    -2.4130    -3.9730 oh         1 GC1      -0.681000
     10 O5           2.8800     0.1590    -0.7410 os         1 GC1      -0.413000
     11 O6A         -0.5380    -0.2930    -0.6750 o          1 GC1      -0.712000
     12 O6B          0.8610    -0.9820     0.7510 o          1 GC1      -0.712000
     13 H2           4.8980    -1.3130    -1.7760 h1         1 GC1       0.033700
     14 H3           2.8630    -0.5190    -3.9260 h1         1 GC1       0.087700
     15 H4           2.5610    -2.4060    -1.5290 h1         1 GC1       0.051700
     16 H5           1.3100     0.3380    -2.0990 h1         1 GC1       0.034700
     17 HO4          1.4860    -2.7020    -3.7270 ho         1 GC1       0.482000
     18 HO2          5.4380    -0.8400    -4.1370 ho         1 GC1       0.500000
     19 HO3          4.1390    -3.0430    -3.3260 ho         1 GC1       0.431000
     20 H1           4.7310     1.0560    -1.0480 h1         1 GC1       0.039700
     21 H11          3.5090     1.3900    -2.3030 h1         1 GC1       0.039700
@<TRIPOS>BOND
     1     1     5 1   
     2     1    17 1   
     3     2     3 1   
     4     2    10 1   
     5     2    20 1   
     6     2    21 1   
     7     3     4 1   
     8     3     8 1   
     9     3    13 1   
    10     4     5 1   
    11     4     9 1   
    12     4    14 1   
    13     5     6 1   
    14     5    15 1   
    15     6     7 1   
    16     6    10 1   
    17     6    16 1   
    18     7    11 1   
    19     7    12 1   
    20     8    18 1   
    21     9    19 1   
@<TRIPOS>SUBSTRUCTURE
     1 GC1         1 TEMP              0 ****  ****    0 ROOT
