@<TRIPOS>MOLECULE
GC1
   21    21     1     0     0
SMALL
bcc


@<TRIPOS>ATOM
      1 O4           1.0200    -2.1130    -2.9090 oh         1 GC1      -0.561800
      2 C1           3.8710     0.5910    -1.6740 c6         1 GC1       0.132400
      3 C2           4.4200    -0.5750    -2.4880 c6         1 GC1       0.082100
      4 C3           3.2760    -1.2630    -3.2260 c6         1 GC1       0.051100
      5 C4           2.1580    -1.6150    -2.2500 c6         1 GC1       0.102100
      6 C5           1.7400    -0.3660    -1.4780 c6         1 GC1      -0.000900
      7 C6           0.6460    -0.6900    -0.4370 c          1 GC1       0.954600
      8 O2           5.3940    -0.0660    -3.3660 oh         1 GC1      -0.603800
      9 O3           3.7230    -2.3900    -3.9580 oh         1 GC1      -0.618800
     10 O5           2.8610     0.1600    -0.7960 os         1 GC1      -0.366600
     11 O6A         -0.4630    -0.1510    -0.6040 o          1 GC1      -0.817300
     12 O6B          0.9820    -1.4650     0.4760 o          1 GC1      -0.817300
     13 H2           4.8670    -1.3020    -1.7890 h1         1 GC1       0.033700
     14 H3           2.8770    -0.5700    -3.9760 h1         1 GC1       0.087700
     15 H4           2.5450    -2.3440    -1.5190 h1         1 GC1       0.051700
     16 H5           1.3580     0.3780    -2.1950 h1         1 GC1       0.034700
     17 HO4          1.2840    -2.8830    -3.4230 ho         1 GC1       0.383000
     18 HO2          5.6950    -0.7880    -3.9280 ho         1 GC1       0.401000
     19 HO3          4.0890    -3.0330    -3.3390 ho         1 GC1       0.392000
     20 H1           4.6620     1.0370    -1.0680 h1         1 GC1       0.039700
     21 H11          3.4960     1.3670    -2.3580 h1         1 GC1       0.039700
@<TRIPOS>BOND
     1     1     5 1   
     2     1    17 1   
     3     2     3 1   
     4     2    10 1   
     5     2    20 1   
     6     2    21 1   
     7     3     4 1   
     8     3     8 1   
     9     3    13 1   
    10     4     5 1   
    11     4     9 1   
    12     4    14 1   
    13     5     6 1   
    14     5    15 1   
    15     6     7 1   
    16     6    10 1   
    17     6    16 1   
    18     7    11 1   
    19     7    12 1   
    20     8    18 1   
    21     9    19 1   
@<TRIPOS>SUBSTRUCTURE
     1 GC1         1 TEMP              0 ****  ****    0 ROOT
