@<TRIPOS>MOLECULE
GC2
   34    35     1     0     0
SMALL
abcg2


@<TRIPOS>ATOM
      1 O1           3.4340    -0.3850    -1.5320 o          1 GC2      -0.600100
      2 C8           3.5440    -0.0030    -0.3750 c          1 GC2       0.611100
      3 C10          4.8880     0.2720     0.2560 c3         1 GC2      -0.180100
      4 N2           2.4970     0.1660     0.4540 ns         1 GC2      -0.498900
      5 C2           1.1160    -0.0440     0.0950 c6         1 GC2       0.073700
      6 C3           0.3350     1.2650     0.1060 c6         1 GC2       0.161300
      7 O4           0.9400     2.1530    -0.8000 oh         1 GC2      -0.648000
      8 C4          -1.1270     1.0060    -0.2460 c6         1 GC2       0.115300
      9 O2          -1.7930     2.2480    -0.1710 oh         1 GC2      -0.671000
     10 C1           0.4590    -1.0370     1.0650 c6         1 GC2       0.168800
     11 N1          -0.9430    -1.2410     0.8090 n3         1 GC2      -0.740600
     12 C5          -1.7280    -0.0280     0.7190 c5         1 GC2       0.154500
     13 C9          -1.2860    -2.1240    -0.3040 c5         1 GC2       0.176800
     14 C7          -2.6740    -1.6560    -0.7620 c5         1 GC2      -0.131400
     15 C6          -3.0750    -0.5880     0.2610 c5         1 GC2       0.167300
     16 O3          -3.9050     0.4320    -0.2460 oh         1 GC2      -0.676000
     17 H101         5.6280     0.4790    -0.5130 hc         1 GC2       0.059367
     18 H102         4.8560     1.1100     0.9520 hc         1 GC2       0.059367
     19 H103         5.2180    -0.6060     0.8140 hc         1 GC2       0.059367
     20 H2           2.6850     0.4990     1.3870 hn         1 GC2       0.306500
     21 HA           1.1020    -0.4570    -0.9160 h1         1 GC2       0.096700
     22 H3           0.3650     1.6730     1.1320 h1         1 GC2       0.034700
     23 H11C         0.9800    -1.9950     1.0200 h1         1 GC2       0.058700
     24 H12C         0.5860    -0.6650     2.0900 h1         1 GC2       0.058700
     25 H4           0.4220     2.9640    -0.8110 ho         1 GC2       0.460000
     26 HB          -1.1570     0.6130    -1.2760 h1         1 GC2       0.047700
     27 HC          -2.7160     2.0870    -0.4050 ho         1 GC2       0.474000
     28 H5          -1.8030     0.4380     1.7100 h1         1 GC2       0.084700
     29 H91C        -0.5710    -2.0660    -1.1350 h1         1 GC2       0.046700
     30 H92C        -1.2900    -3.1630     0.0330 h1         1 GC2       0.046700
     31 H6          -3.5510    -1.0710     1.1230 h1         1 GC2       0.054700
     32 H71C        -2.6250    -1.2100    -1.7580 hc         1 GC2       0.055200
     33 H72C        -3.3960    -2.4710    -0.8070 hc         1 GC2       0.055200
     34 HD          -4.6860     0.0370    -0.6450 ho         1 GC2       0.457000
@<TRIPOS>BOND
     1     1     2 2   
     2     2     3 1   
     3     2     4 1   
     4     3    17 1   
     5     3    18 1   
     6     3    19 1   
     7     4     5 1   
     8     4    20 1   
     9     5     6 1   
    10     5    10 1   
    11     5    21 1   
    12     6     7 1   
    13     6     8 1   
    14     6    22 1   
    15     7    25 1   
    16     8     9 1   
    17     8    12 1   
    18     8    26 1   
    19     9    27 1   
    20    10    11 1   
    21    10    23 1   
    22    10    24 1   
    23    11    12 1   
    24    11    13 1   
    25    12    15 1   
    26    12    28 1   
    27    13    14 1   
    28    13    29 1   
    29    13    30 1   
    30    14    15 1   
    31    14    32 1   
    32    14    33 1   
    33    15    16 1   
    34    15    31 1   
    35    16    34 1   
@<TRIPOS>SUBSTRUCTURE
     1 GC2         1 TEMP              0 ****  ****    0 ROOT
