@<TRIPOS>MOLECULE
GC2
   34    35     1     0     0
SMALL
No Charge or Current Charge


@<TRIPOS>ATOM
      1 O1           3.5820    -0.1260    -1.5490 o          1 GC2      -0.600100
      2 C8           3.6820     0.0800    -0.3480 c          1 GC2       0.611100
      3 C10          5.0170     0.3820     0.3210 c3         1 GC2      -0.180100
      4 N2           2.6060     0.0390     0.5100 ns         1 GC2      -0.498900
      5 C2           1.1920    -0.1460     0.1120 c6         1 GC2       0.073700
      6 C3           0.4150     1.2110     0.0720 c6         1 GC2       0.161300
      7 O4           1.0070     2.1410    -0.8490 oh         1 GC2      -0.648000
      8 C4          -1.0710     0.9710    -0.3260 c6         1 GC2       0.115300
      9 O2          -1.7970     2.2120    -0.3930 oh         1 GC2      -0.671000
     10 C1           0.4710    -1.1340     1.0800 c6         1 GC2       0.168800
     11 N1          -0.9820    -1.2760     0.7760 n3         1 GC2      -0.740600
     12 C5          -1.7400     0.0010     0.7080 c5         1 GC2       0.154500
     13 C9          -1.3470    -2.0260    -0.4560 c5         1 GC2       0.176800
     14 C7          -2.8350    -1.6270    -0.7210 c5         1 GC2      -0.131400
     15 C6          -3.1580    -0.5290     0.3390 c5         1 GC2       0.167300
     16 O3          -4.0270     0.4860    -0.1830 oh         1 GC2      -0.676000
     17 H101         5.8520     0.3940    -0.3880 hc         1 GC2       0.059367
     18 H102         4.9360     1.3290     0.8670 hc         1 GC2       0.059367
     19 H103         5.1830    -0.3390     1.1300 hc         1 GC2       0.059367
     20 H2           2.8090     0.2260     1.4840 hn         1 GC2       0.306500
     21 HA           1.1690    -0.5830    -0.8960 h1         1 GC2       0.096700
     22 H3           0.4310     1.6440     1.0840 h1         1 GC2       0.034700
     23 H11C         0.9680    -2.1140     1.0360 h1         1 GC2       0.058700
     24 H12C         0.5920    -0.7650     2.1090 h1         1 GC2       0.058700
     25 H4           0.2810     2.7740    -1.0530 ho         1 GC2       0.460000
     26 HB          -1.0830     0.5010    -1.3200 h1         1 GC2       0.047700
     27 HC          -2.7500     1.9340    -0.3950 ho         1 GC2       0.474000
     28 H5          -1.7610     0.5020     1.6860 h1         1 GC2       0.084700
     29 H91C        -0.7200    -1.7420    -1.3120 h1         1 GC2       0.046700
     30 H92C        -1.2340    -3.1100    -0.3160 h1         1 GC2       0.046700
     31 H6          -3.6070    -0.9940     1.2280 h1         1 GC2       0.054700
     32 H71C        -2.9500    -1.2540    -1.7450 hc         1 GC2       0.055200
     33 H72C        -3.5070    -2.4860    -0.6180 hc         1 GC2       0.055200
     34 HD          -4.8940     0.0520    -0.3530 ho         1 GC2       0.457000
@<TRIPOS>BOND
     1     1     2 2   
     2     2     3 1   
     3     2     4 1   
     4     3    17 1   
     5     3    18 1   
     6     3    19 1   
     7     4     5 1   
     8     4    20 1   
     9     5     6 1   
    10     5    10 1   
    11     5    21 1   
    12     6     7 1   
    13     6     8 1   
    14     6    22 1   
    15     7    25 1   
    16     8     9 1   
    17     8    12 1   
    18     8    26 1   
    19     9    27 1   
    20    10    11 1   
    21    10    23 1   
    22    10    24 1   
    23    11    12 1   
    24    11    13 1   
    25    12    15 1   
    26    12    28 1   
    27    13    14 1   
    28    13    29 1   
    29    13    30 1   
    30    14    15 1   
    31    14    32 1   
    32    14    33 1   
    33    15    16 1   
    34    15    31 1   
    35    16    34 1   
@<TRIPOS>SUBSTRUCTURE
     1 GC2         1 TEMP              0 ****  ****    0 ROOT
