@<TRIPOS>MOLECULE
GC3
   28    29     1     0     0
SMALL
No Charge or Current Charge


@<TRIPOS>ATOM
      1 C1          -8.4090   -10.3220     9.0020 c5         1 GC3       0.365300
      2 C2          -8.7750   -11.7490     9.5200 c5         1 GC3       0.009500
      3 C3          -9.4060   -11.7750    10.9390 c6         1 GC3       0.183300
      4 C4          -8.7010   -10.6950    11.7980 c6         1 GC3       0.156300
      5 C5          -9.0610    -9.2980    11.2040 c6         1 GC3       0.091300
      6 C6          -8.0470    -8.1920    11.6420 c3         1 GC3       0.163600
      7 C7          -9.7190   -11.4010     7.5570 c2         1 GC3       0.580600
      8 C8         -10.4880   -11.5140     6.2340 c3         1 GC3       0.142300
      9 N2          -9.7080   -12.2890     8.4960 n2         1 GC3      -0.603900
     10 O1          -8.9100   -10.2990     7.6620 os         1 GC3      -0.494600
     11 O3          -9.2640   -13.0790    11.5310 oh         1 GC3      -0.647000
     12 O4          -9.1020   -10.7970    13.1770 oh         1 GC3      -0.707000
     13 O5          -9.1490    -9.3130     9.7440 os         1 GC3      -0.442000
     14 O6          -6.7910    -8.2520    10.9360 oh         1 GC3      -0.725000
     15 O10        -11.8110   -10.9190     6.2850 oh         1 GC3      -0.634000
     16 H1          -7.3280   -10.1300     9.0360 h2         1 GC3       0.102700
     17 H2          -7.8590   -12.3570     9.5480 h1         1 GC3       0.102700
     18 H3         -10.4720   -11.5090    10.8620 h1         1 GC3       0.058700
     19 H4          -7.6130   -10.8480    11.7180 h1         1 GC3       0.066700
     20 HA          -9.6320   -13.7120    10.8740 ho         1 GC3       0.460000
     21 H5         -10.0480    -9.0030    11.5870 h1         1 GC3       0.069700
     22 HB          -9.2170   -11.7670    13.3290 ho         1 GC3       0.516000
     23 H61C        -8.5240    -7.2150    11.4810 h1         1 GC3       0.060700
     24 H62C        -7.8820    -8.2860    12.7250 h1         1 GC3       0.060700
     25 H6          -6.9650    -7.8980    10.0320 ho         1 GC3       0.514000
     26 H81C        -9.8930   -11.0360     5.4450 h1         1 GC3       0.048700
     27 H82C       -10.5660   -12.5770     5.9700 h1         1 GC3       0.048700
     28 H10        -12.2180   -11.0410     5.3980 ho         1 GC3       0.451000
@<TRIPOS>BOND
     1     1     2 1   
     2     1    10 1   
     3     1    13 1   
     4     1    16 1   
     5     2     3 1   
     6     2     9 1   
     7     2    17 1   
     8     3     4 1   
     9     3    11 1   
    10     3    18 1   
    11     4     5 1   
    12     4    12 1   
    13     4    19 1   
    14     5     6 1   
    15     5    13 1   
    16     5    21 1   
    17     6    14 1   
    18     6    23 1   
    19     6    24 1   
    20     7     8 1   
    21     7     9 2   
    22     7    10 1   
    23     8    15 1   
    24     8    26 1   
    25     8    27 1   
    26    11    20 1   
    27    12    22 1   
    28    14    25 1   
    29    15    28 1   
@<TRIPOS>SUBSTRUCTURE
     1 GC3         1 TEMP              0 ****  ****    0 ROOT
