@<TRIPOS>MOLECULE
GC3
   28    29     1     0     0
SMALL
abcg2


@<TRIPOS>ATOM
      1 C1          -8.1040   -10.5270     8.8200 c5         1 GC3       0.365300
      2 C2          -8.6770   -11.8640     9.3350 c5         1 GC3       0.009500
      3 C3          -9.3570   -11.8130    10.7180 c6         1 GC3       0.183300
      4 C4          -8.7380   -10.7620    11.6180 c6         1 GC3       0.156300
      5 C5          -8.7100    -9.4280    10.8640 c6         1 GC3       0.091300
      6 C6          -8.1910    -8.2610    11.6820 c3         1 GC3       0.163600
      7 C7          -9.8750   -11.2000     7.6120 c2         1 GC3       0.580600
      8 C8         -10.8520   -11.0200     6.4990 c3         1 GC3       0.142300
      9 N2          -9.6720   -12.2400     8.3130 n2         1 GC3      -0.603900
     10 O1          -9.1360   -10.0900     7.8720 os         1 GC3      -0.494600
     11 O3          -9.2820   -13.0790    11.3630 oh         1 GC3      -0.647000
     12 O4          -9.5420   -10.6620    12.7880 oh         1 GC3      -0.707000
     13 O5          -7.8240    -9.5410     9.7360 os         1 GC3      -0.442000
     14 O6          -6.8950    -8.4980    12.2250 oh         1 GC3      -0.725000
     15 O10        -11.6440   -12.1820     6.3520 oh         1 GC3      -0.634000
     16 H1          -7.1950   -10.6710     8.2380 h2         1 GC3       0.102700
     17 H2          -7.8820   -12.6070     9.3840 h1         1 GC3       0.102700
     18 H3         -10.4070   -11.5340    10.5740 h1         1 GC3       0.058700
     19 H4          -7.7140   -11.0480    11.8770 h1         1 GC3       0.066700
     20 HA          -9.8050   -13.7100    10.8510 ho         1 GC3       0.460000
     21 H5          -9.7220    -9.1850    10.5200 h1         1 GC3       0.069700
     22 HB          -9.0080   -10.2920    13.5010 ho         1 GC3       0.516000
     23 H61C        -8.1930    -7.3680    11.0500 h1         1 GC3       0.060700
     24 H62C        -8.8590    -8.0840    12.5240 h1         1 GC3       0.060700
     25 H6          -6.2860    -8.6400    11.4890 ho         1 GC3       0.514000
     26 H81C       -11.4600   -10.1360     6.7290 h1         1 GC3       0.048700
     27 H82C       -10.2840   -10.7950     5.5880 h1         1 GC3       0.048700
     28 H10        -12.2430   -12.0370     5.6090 ho         1 GC3       0.451000
@<TRIPOS>BOND
     1     1     2 1   
     2     1    10 1   
     3     1    13 1   
     4     1    16 1   
     5     2     3 1   
     6     2     9 1   
     7     2    17 1   
     8     3     4 1   
     9     3    11 1   
    10     3    18 1   
    11     4     5 1   
    12     4    12 1   
    13     4    19 1   
    14     5     6 1   
    15     5    13 1   
    16     5    21 1   
    17     6    14 1   
    18     6    23 1   
    19     6    24 1   
    20     7     8 1   
    21     7     9 2   
    22     7    10 1   
    23     8    15 1   
    24     8    26 1   
    25     8    27 1   
    26    11    20 1   
    27    12    22 1   
    28    14    25 1   
    29    15    28 1   
@<TRIPOS>SUBSTRUCTURE
     1 GC3         1 TEMP              0 ****  ****    0 ROOT
