@<TRIPOS>MOLECULE
GC6
   64    68     1     0     0
SMALL
abcg2


@<TRIPOS>ATOM
      1 C10        -33.3730    14.6500   -12.0330 c          1 GC6       0.650300
      2 N12        -34.0950    14.4870   -10.9040 n          1 GC6      -0.412800
      3 C13        -34.4340    13.2170   -10.2800 c6         1 GC6       0.102000
      4 C15        -36.4020    14.3090    -9.2020 c6         1 GC6      -0.112400
      5 C20        -30.5940    13.6370   -13.3750 ca         1 GC6      -0.056000
      6 C21        -29.5620    13.0150   -14.0400 ca         1 GC6      -0.107000
      7 C22        -29.7920    11.8730   -14.8340 ca         1 GC6       0.040000
      8 C24        -27.7740    10.6480   -15.9960 c1         1 GC6      -0.156100
      9 C28        -26.0020     8.6530   -18.7260 c6         1 GC6      -0.070900
     10 C2         -35.9770     9.3500   -14.9630 ca         1 GC6       0.412900
     11 C4         -34.6120     9.3070   -16.7560 ca         1 GC6       0.168900
     12 C5         -33.8050    10.2950   -16.2150 ca         1 GC6      -0.299000
     13 C6         -34.1850    10.7360   -14.9530 ca         1 GC6       0.277500
     14 C8         -34.0630    12.5930   -13.3800 cc         1 GC6      -0.085100
     15 C9         -33.1430    13.4690   -12.8970 cd         1 GC6      -0.206400
     16 C14        -35.9320    13.1240   -10.0390 c6         1 GC6      -0.086400
     17 C16        -35.9680    15.6410    -9.8160 c6         1 GC6       0.137500
     18 C18        -34.4660    15.6380   -10.0980 c6         1 GC6       0.097000
     19 C19        -31.8890    13.1310   -13.5070 ca         1 GC6      -0.049800
     20 C23        -28.6990    11.2170   -15.4710 cg         1 GC6      -0.104000
     21 C25        -26.6630     9.9150   -16.6260 c6         1 GC6       0.274100
     22 C27        -27.1360     9.3380   -17.9710 c6         1 GC6      -0.079400
     23 C29        -24.8280     9.6030   -18.9360 c6         1 GC6      -0.074400
     24 C30        -24.3400    10.1770   -17.6110 c6         1 GC6      -0.070900
     25 C31        -25.4740    10.8570   -16.8510 c6         1 GC6      -0.079400
     26 C32        -31.0790    11.3630   -14.9860 ca         1 GC6      -0.099000
     27 C33        -32.1180    12.0170   -14.3370 ca         1 GC6      -0.041200
     28 N3         -35.6820     8.8180   -16.1560 nb         1 GC6      -0.253000
     29 N7         -33.4720    11.7220   -14.2650 na         1 GC6      -0.106200
     30 N17        -36.2790    16.8110    -9.0110 n8         1 GC6      -0.984200
     31 N34        -35.2540    10.2810   -14.3320 nb         1 GC6      -0.298000
     32 O11        -32.9090    15.7310   -12.3780 o          1 GC6      -0.595100
     33 O26        -26.2120     8.8950   -15.7560 oh         1 GC6      -0.646000
     34 H1         -34.0740    12.3890   -10.8820 h1         1 GC6       0.052200
     35 H2         -33.9080    13.1620    -9.3200 h1         1 GC6       0.052200
     36 H3         -37.4880    14.2930    -9.0840 hc         1 GC6       0.039700
     37 H4         -35.9730    14.2320    -8.1960 hc         1 GC6       0.039700
     38 H5         -30.4010    14.5000   -12.7520 ha         1 GC6       0.137000
     39 H6         -28.5530    13.3930   -13.9460 ha         1 GC6       0.124000
     40 H7         -26.3780     8.2960   -19.6880 hc         1 GC6       0.044950
     41 H8         -25.6690     7.7680   -18.1770 hc         1 GC6       0.044950
     42 H9         -34.3790     8.9000   -17.7340 h4         1 GC6       0.027100
     43 H10        -32.9770    10.7030   -16.7710 ha         1 GC6       0.151000
     44 H11        -35.1230    12.5340   -13.1910 h4         1 GC6       0.235000
     45 H12        -36.4570    13.1040   -10.9990 hc         1 GC6       0.048200
     46 H13        -36.1570    12.1840    -9.5330 hc         1 GC6       0.048200
     47 H14        -36.4770    15.7610   -10.7790 h1         1 GC6       0.069700
     48 H15        -33.9120    15.6060    -9.1510 h1         1 GC6       0.065200
     49 H16        -34.1820    16.5530   -10.6110 h1         1 GC6       0.065200
     50 H17        -27.5360    10.1560   -18.5760 hc         1 GC6       0.050950
     51 H18        -27.9630     8.6430   -17.7980 hc         1 GC6       0.050950
     52 H19        -25.1430    10.4240   -19.5900 hc         1 GC6       0.038700
     53 H20        -24.0120     9.0890   -19.4510 hc         1 GC6       0.038700
     54 H21        -23.9050     9.3820   -17.0010 hc         1 GC6       0.044950
     55 H22        -23.5430    10.9040   -17.7840 hc         1 GC6       0.044950
     56 H23        -25.1260    11.2360   -15.8870 hc         1 GC6       0.050950
     57 H24        -25.8270    11.7220   -17.4200 hc         1 GC6       0.050950
     58 H25        -31.2320    10.4710   -15.5750 ha         1 GC6       0.126000
     59 H26        -37.6030     8.1460   -14.7290 hn         1 GC6       0.505500
     60 H27        -37.2910     9.2140   -13.4110 hn         1 GC6       0.505500
     61 H28        -37.2820    16.8750    -8.8860 hn         1 GC6       0.393000
     62 H29        -35.8970    16.6880    -8.0800 hn         1 GC6       0.393000
     63 H31        -26.9020     8.2260   -15.6800 ho         1 GC6       0.444000
     64 N1         -37.0910     8.9230   -14.3520 nv         1 GC6      -1.067900
@<TRIPOS>BOND
     1     1     2 1   
     2     1    15 1   
     3     1    32 2   
     4     2     3 1   
     5     2    18 1   
     6     3    16 1   
     7     3    34 1   
     8     3    35 1   
     9     4    16 1   
    10     4    17 1   
    11     4    36 1   
    12     4    37 1   
    13     5     6 ar  
    14     5    19 ar  
    15     5    38 1   
    16     6     7 ar  
    17     6    39 1   
    18     7    20 1   
    19     7    26 ar  
    20     8    20 3   
    21     8    21 1   
    22     9    22 1   
    23     9    23 1   
    24     9    40 1   
    25     9    41 1   
    26    10    28 ar  
    27    10    31 ar  
    28    10    64 1   
    29    11    12 ar  
    30    11    28 ar  
    31    11    42 1   
    32    12    13 ar  
    33    12    43 1   
    34    13    29 1   
    35    13    31 ar  
    36    14    15 2   
    37    14    29 1   
    38    14    44 1   
    39    15    19 1   
    40    16    45 1   
    41    16    46 1   
    42    17    18 1   
    43    17    30 1   
    44    17    47 1   
    45    18    48 1   
    46    18    49 1   
    47    19    27 ar  
    48    21    22 1   
    49    21    25 1   
    50    21    33 1   
    51    22    50 1   
    52    22    51 1   
    53    23    24 1   
    54    23    52 1   
    55    23    53 1   
    56    24    25 1   
    57    24    54 1   
    58    24    55 1   
    59    25    56 1   
    60    25    57 1   
    61    26    27 ar  
    62    26    58 1   
    63    27    29 1   
    64    30    61 1   
    65    30    62 1   
    66    33    63 1   
    67    59    64 1   
    68    60    64 1   
@<TRIPOS>SUBSTRUCTURE
     1 GC6         1 TEMP              0 ****  ****    0 ROOT
