@<TRIPOS>MOLECULE
GC6
   64    68     1     0     0
SMALL
No Charge or Current Charge


@<TRIPOS>ATOM
      1 C10        -33.0570    14.3580   -11.4460 c          1 GC6       0.650300
      2 N12        -34.3360    14.4540   -10.8510 n          1 GC6      -0.412800
      3 C13        -34.9490    13.2460   -10.2170 c6         1 GC6       0.102000
      4 C15        -36.8250    14.6470    -9.2120 c6         1 GC6      -0.112400
      5 C20        -30.2660    13.2830   -12.7760 ca         1 GC6      -0.056000
      6 C21        -29.2300    12.6740   -13.5170 ca         1 GC6      -0.107000
      7 C22        -29.5240    11.6870   -14.4910 ca         1 GC6       0.040000
      8 C24        -27.5690    10.5510   -15.8700 c1         1 GC6      -0.156100
      9 C28        -26.0420     8.2020   -18.5470 c6         1 GC6      -0.070900
     10 C2         -35.3370     9.1280   -15.3190 ca         1 GC6       0.412900
     11 C4         -34.4850    10.2250   -17.1160 ca         1 GC6       0.168900
     12 C5         -33.7960    11.0810   -16.2420 ca         1 GC6      -0.299000
     13 C6         -33.9330    10.8830   -14.8520 ca         1 GC6       0.277500
     14 C8         -33.9020    12.5700   -13.0820 cc         1 GC6      -0.085100
     15 C9         -32.8650    13.2760   -12.4650 cd         1 GC6      -0.206400
     16 C14        -36.4770    13.3750   -10.0130 c6         1 GC6      -0.086400
     17 C16        -36.2380    15.8860    -9.9200 c6         1 GC6       0.137500
     18 C18        -34.7060    15.7230   -10.1550 c6         1 GC6       0.097000
     19 C19        -31.5850    12.8840   -13.0430 ca         1 GC6      -0.049800
     20 C23        -28.4620    11.0730   -15.2320 cg         1 GC6      -0.104000
     21 C25        -26.5010     9.9150   -16.6670 c6         1 GC6       0.274100
     22 C27        -27.1060     8.8290   -17.6060 c6         1 GC6      -0.079400
     23 C29        -25.3100     9.2920   -19.3690 c6         1 GC6      -0.074400
     24 C30        -24.6760    10.3580   -18.4430 c6         1 GC6      -0.070900
     25 C31        -25.7380    10.9870   -17.5010 c6         1 GC6      -0.079400
     26 C32        -30.8610    11.3020   -14.7310 ca         1 GC6      -0.099000
     27 C33        -31.8690    11.9310   -13.9850 ca         1 GC6      -0.041200
     28 N3         -35.2660     9.2350   -16.6510 nb         1 GC6      -0.253000
     29 N7         -33.2400    11.7490   -14.0090 na         1 GC6      -0.106200
     30 N17        -36.5470    17.1060    -9.1400 n8         1 GC6      -0.984200
     31 N34        -34.7260     9.8860   -14.4010 nb         1 GC6      -0.298000
     32 O11        -32.1710    15.1540   -11.1590 o          1 GC6      -0.595100
     33 O26        -25.6170     9.3110   -15.7240 oh         1 GC6      -0.646000
     34 H1         -34.7350    12.3300   -10.7780 h1         1 GC6       0.052200
     35 H2         -34.4800    13.1090    -9.2320 h1         1 GC6       0.052200
     36 H3         -37.9160    14.7400    -9.1200 hc         1 GC6       0.039700
     37 H4         -36.4230    14.5630    -8.1930 hc         1 GC6       0.039700
     38 H5         -30.0380    14.0320   -12.0220 ha         1 GC6       0.137000
     39 H6         -28.1980    12.9640   -13.3330 ha         1 GC6       0.124000
     40 H7         -26.5230     7.4850   -19.2260 hc         1 GC6       0.044950
     41 H8         -25.3120     7.6290   -17.9580 hc         1 GC6       0.044950
     42 H9         -34.4130    10.3350   -18.1970 h4         1 GC6       0.027100
     43 H10        -33.1730    11.8800   -16.6340 ha         1 GC6       0.151000
     44 H11        -34.9820    12.6080   -12.9800 h4         1 GC6       0.235000
     45 H12        -36.9760    13.4020   -10.9920 hc         1 GC6       0.048200
     46 H13        -36.8580    12.4870    -9.4910 hc         1 GC6       0.048200
     47 H14        -36.7210    15.9890   -10.9050 h1         1 GC6       0.069700
     48 H15        -34.1840    15.7560    -9.1880 h1         1 GC6       0.065200
     49 H16        -34.3490    16.5790   -10.7460 h1         1 GC6       0.065200
     50 H17        -27.9020     9.2740   -18.2180 hc         1 GC6       0.050950
     51 H18        -27.5840     8.0360   -17.0130 hc         1 GC6       0.050950
     52 H19        -26.0170     9.7730   -20.0580 hc         1 GC6       0.038700
     53 H20        -24.5320     8.8290   -19.9910 hc         1 GC6       0.038700
     54 H21        -23.8720     9.9030   -17.8480 hc         1 GC6       0.044950
     55 H22        -24.2060    11.1440   -19.0490 hc         1 GC6       0.044950
     56 H23        -25.2530    11.7120   -16.8320 hc         1 GC6       0.050950
     57 H24        -26.4540    11.5620   -18.1060 hc         1 GC6       0.050950
     58 H25        -31.1000    10.5410   -15.4690 ha         1 GC6       0.126000
     59 H26        -36.7820     7.6950   -15.4730 hn         1 GC6       0.505500
     60 H27        -36.3870     8.1630   -13.8550 hn         1 GC6       0.505500
     61 H28        -37.5650    17.1750    -9.0260 hn         1 GC6       0.393000
     62 H29        -36.2100    16.9790    -8.1790 hn         1 GC6       0.393000
     63 H31        -26.1960     8.9220   -15.0350 ho         1 GC6       0.444000
     64 N1         -36.1230     8.1380   -14.8370 nv         1 GC6      -1.067900
@<TRIPOS>BOND
     1     1     2 1   
     2     1    15 1   
     3     1    32 2   
     4     2     3 1   
     5     2    18 1   
     6     3    16 1   
     7     3    34 1   
     8     3    35 1   
     9     4    16 1   
    10     4    17 1   
    11     4    36 1   
    12     4    37 1   
    13     5     6 ar  
    14     5    19 ar  
    15     5    38 1   
    16     6     7 ar  
    17     6    39 1   
    18     7    20 1   
    19     7    26 ar  
    20     8    20 3   
    21     8    21 1   
    22     9    22 1   
    23     9    23 1   
    24     9    40 1   
    25     9    41 1   
    26    10    28 ar  
    27    10    31 ar  
    28    10    64 1   
    29    11    12 ar  
    30    11    28 ar  
    31    11    42 1   
    32    12    13 ar  
    33    12    43 1   
    34    13    29 1   
    35    13    31 ar  
    36    14    15 2   
    37    14    29 1   
    38    14    44 1   
    39    15    19 1   
    40    16    45 1   
    41    16    46 1   
    42    17    18 1   
    43    17    30 1   
    44    17    47 1   
    45    18    48 1   
    46    18    49 1   
    47    19    27 ar  
    48    21    22 1   
    49    21    25 1   
    50    21    33 1   
    51    22    50 1   
    52    22    51 1   
    53    23    24 1   
    54    23    52 1   
    55    23    53 1   
    56    24    25 1   
    57    24    54 1   
    58    24    55 1   
    59    25    56 1   
    60    25    57 1   
    61    26    27 ar  
    62    26    58 1   
    63    27    29 1   
    64    30    61 1   
    65    30    62 1   
    66    33    63 1   
    67    59    64 1   
    68    60    64 1   
@<TRIPOS>SUBSTRUCTURE
     1 GC6         1 TEMP              0 ****  ****    0 ROOT
