@<TRIPOS>MOLECULE
GC7
   34    33     1     0     0
SMALL
No Charge or Current Charge


@<TRIPOS>ATOM
      1 N1           0.1830    -0.4300     6.7380 n8         1 GC7      -0.996200
      2 C1          -0.3750     0.2190     5.5370 c3         1 GC7       0.150800
      3 C2           0.2530    -0.3430     4.2450 c3         1 GC7      -0.078400
      4 C3          -0.3100     0.3200     2.9680 c3         1 GC7      -0.074400
      5 C4           0.3150    -0.2380     1.6700 c3         1 GC7      -0.073400
      6 C5          -0.2490     0.4250     0.3940 c3         1 GC7      -0.074400
      7 C6           0.3740    -0.1320    -0.9050 c3         1 GC7      -0.078400
      8 C7          -0.1920     0.5330    -2.1750 c3         1 GC7       0.159800
      9 N8           0.4450    -0.0430    -3.3750 n7         1 GC7      -0.897400
     10 C9           0.0890     0.5350    -4.5610 c3         1 GC7       0.625900
     11 NH1          0.9520    -0.0410    -5.3910 n8         1 GC7      -1.004200
     12 NH2         -0.9390    -0.2360    -4.9540 n8         1 GC7      -1.004200
     13 HN11        -0.3060    -0.0730     7.5680 hn         1 GC7       0.391500
     14 HN12        -0.0660    -1.4260     6.7240 hn         1 GC7       0.391500
     15 H11         -1.4620     0.0570     5.5230 h1         1 GC7       0.025200
     16 H12         -0.1840     1.2990     5.6020 h1         1 GC7       0.025200
     17 H21          1.3400    -0.1950     4.2780 hc         1 GC7       0.046200
     18 H22          0.0750    -1.4250     4.1960 hc         1 GC7       0.046200
     19 H31         -1.3970     0.1730     2.9360 hc         1 GC7       0.035700
     20 H32         -0.1340     1.4010     3.0170 hc         1 GC7       0.035700
     21 H41          1.4020    -0.0920     1.7020 hc         1 GC7       0.040200
     22 H42          0.1380    -1.3200     1.6210 hc         1 GC7       0.040200
     23 H51         -1.3360     0.2790     0.3620 hc         1 GC7       0.036200
     24 H52         -0.0720     1.5070     0.4420 hc         1 GC7       0.036200
     25 H61          1.4610     0.0140    -0.8740 hc         1 GC7       0.047700
     26 H62          0.1960    -1.2130    -0.9550 hc         1 GC7       0.047700
     27 H71         -1.2790     0.3810    -2.2030 h1         1 GC7       0.023700
     28 H72         -0.0040     1.6150    -2.1260 h1         1 GC7       0.023700
     29 HN8          1.4430     0.1630    -3.3150 hn         1 GC7       0.418000
     30 H9          -0.0230     1.6180    -4.6870 h3         1 GC7      -0.003300
     31 HH11         0.9490    -0.9790    -5.0080 hn         1 GC7       0.409250
     32 HH12         0.3700    -0.1640    -6.2160 hn         1 GC7       0.409250
     33 HH21        -0.9400    -0.9260    -4.2040 hn         1 GC7       0.409250
     34 HH22        -1.7790     0.3080    -4.7610 hn         1 GC7       0.409250
@<TRIPOS>BOND
     1     1     2 1   
     2     1    13 1   
     3     1    14 1   
     4     2     3 1   
     5     2    15 1   
     6     2    16 1   
     7     3     4 1   
     8     3    17 1   
     9     3    18 1   
    10     4     5 1   
    11     4    19 1   
    12     4    20 1   
    13     5     6 1   
    14     5    21 1   
    15     5    22 1   
    16     6     7 1   
    17     6    23 1   
    18     6    24 1   
    19     7     8 1   
    20     7    25 1   
    21     7    26 1   
    22     8     9 1   
    23     8    27 1   
    24     8    28 1   
    25     9    10 1   
    26     9    29 1   
    27    10    11 1   
    28    10    12 1   
    29    10    30 1   
    30    11    31 1   
    31    11    32 1   
    32    12    33 1   
    33    12    34 1   
@<TRIPOS>SUBSTRUCTURE
     1 GC7         1 TEMP              0 ****  ****    0 ROOT
