@<TRIPOS>MOLECULE
GC7
   34    33     1     0     0
SMALL
abcg2


@<TRIPOS>ATOM
      1 N1           0.1820    -0.2390     6.7090 n8         1 GC7      -0.996200
      2 C1          -0.4090     0.3120     5.4980 c3         1 GC7       0.150800
      3 C2           0.2530    -0.2610     4.2550 c3         1 GC7      -0.078400
      4 C3          -0.3190     0.3080     2.9640 c3         1 GC7      -0.074400
      5 C4           0.3380    -0.2610     1.7130 c3         1 GC7      -0.073400
      6 C5          -0.2310     0.3130     0.4230 c3         1 GC7      -0.074400
      7 C6           0.4340    -0.2480    -0.8270 c3         1 GC7      -0.078400
      8 C7          -0.1520     0.3210    -2.1090 c3         1 GC7       0.159800
      9 N8           0.5100    -0.2200    -3.2820 n7         1 GC7      -0.897400
     10 C9          -0.0350     0.2810    -4.5360 c3         1 GC7       0.625900
     11 NH1          0.8900    -0.0780    -5.5910 n8         1 GC7      -1.004200
     12 NH2         -1.3170    -0.2910    -4.8650 n8         1 GC7      -1.004200
     13 HN11        -0.2570     0.1790     7.5200 hn         1 GC7       0.391500
     14 HN12        -0.0320    -1.2270     6.7650 hn         1 GC7       0.391500
     15 H11         -1.4950     0.1510     5.4280 h1         1 GC7       0.025200
     16 H12         -0.2650     1.3960     5.5100 h1         1 GC7       0.025200
     17 H21          1.3290    -0.0680     4.3020 hc         1 GC7       0.046200
     18 H22          0.1360    -1.3510     4.2530 hc         1 GC7       0.046200
     19 H31         -1.3970     0.1180     2.9250 hc         1 GC7       0.035700
     20 H32         -0.2060     1.3980     2.9660 hc         1 GC7       0.035700
     21 H41          1.4170    -0.0720     1.7510 hc         1 GC7       0.040200
     22 H42          0.2240    -1.3510     1.7080 hc         1 GC7       0.040200
     23 H51         -1.3080     0.1160     0.3810 hc         1 GC7       0.036200
     24 H52         -0.1250     1.4030     0.4330 hc         1 GC7       0.036200
     25 H61          1.5090    -0.0360    -0.7920 hc         1 GC7       0.047700
     26 H62          0.3370    -1.3380    -0.8420 hc         1 GC7       0.047700
     27 H71         -1.2150     0.0650    -2.1570 h1         1 GC7       0.023700
     28 H72         -0.1070     1.4230    -2.0730 h1         1 GC7       0.023700
     29 HN8          1.4950     0.0220    -3.2290 hn         1 GC7       0.418000
     30 H9          -0.2000     1.3730    -4.4720 h3         1 GC7      -0.003300
     31 HH11         0.5050     0.2400    -6.4710 hn         1 GC7       0.409250
     32 HH12         1.7620     0.4240    -5.4720 hn         1 GC7       0.409250
     33 HH21        -1.2800    -1.2950    -4.7250 hn         1 GC7       0.409250
     34 HH22        -2.0340     0.0650    -4.2470 hn         1 GC7       0.409250
@<TRIPOS>BOND
     1     1     2 1   
     2     1    13 1   
     3     1    14 1   
     4     2     3 1   
     5     2    15 1   
     6     2    16 1   
     7     3     4 1   
     8     3    17 1   
     9     3    18 1   
    10     4     5 1   
    11     4    19 1   
    12     4    20 1   
    13     5     6 1   
    14     5    21 1   
    15     5    22 1   
    16     6     7 1   
    17     6    23 1   
    18     6    24 1   
    19     7     8 1   
    20     7    25 1   
    21     7    26 1   
    22     8     9 1   
    23     8    27 1   
    24     8    28 1   
    25     9    10 1   
    26     9    29 1   
    27    10    11 1   
    28    10    12 1   
    29    10    30 1   
    30    11    31 1   
    31    11    32 1   
    32    12    33 1   
    33    12    34 1   
@<TRIPOS>SUBSTRUCTURE
     1 GC7         1 TEMP              0 ****  ****    0 ROOT
