@<TRIPOS>MOLECULE
GC8
   48    50     1     0     0
SMALL
abcg2


@<TRIPOS>ATOM
      1 CL1         -8.6580    -1.4900     0.6700 cl         1 GC8      -0.191000
      2 C02         -7.0110    -1.0110     0.4400 ca         1 GC8       0.088000
      3 C03         -6.0100    -1.9640     0.4150 ca         1 GC8      -0.063000
      4 C04         -4.6910    -1.5720     0.2310 ca         1 GC8      -0.190000
      5 C05         -4.3620    -0.2300     0.0680 ca         1 GC8       0.147100
      6 O06         -3.1230     0.2430    -0.1190 os         1 GC8      -0.290100
      7 C07         -2.0590    -0.6690    -0.1590 c3         1 GC8       0.070600
      8 C08         -0.7950     0.1210    -0.4630 c          1 GC8       0.608100
      9 O09         -0.8240     1.2690    -0.8530 o          1 GC8      -0.535100
     10 N10          0.3240    -0.6160    -0.2730 ns         1 GC8      -0.149000
     11 C11          1.6600    -0.2800    -0.5220 ca         1 GC8      -0.023000
     12 C12          2.0940     0.9670    -0.9690 ca         1 GC8      -0.152000
     13 C13          3.4510     1.1860    -1.1750 ca         1 GC8      -0.070500
     14 C14          4.4010     0.1990    -0.9550 ca         1 GC8      -0.108300
     15 C15          3.9540    -1.0420    -0.5030 ca         1 GC8      -0.070500
     16 C16          2.6100    -1.2790    -0.2920 ca         1 GC8      -0.152000
     17 C17          5.8640     0.4430    -1.2160 c3         1 GC8       0.221100
     18 N18          6.7070    -0.0660    -0.1560 n3         1 GC8      -0.725600
     19 C19          8.0990    -0.1460    -0.5620 c6         1 GC8       0.168300
     20 C20          8.9430    -0.8150     0.5130 c6         1 GC8      -0.075400
     21 C21          8.8110    -0.0760     1.8390 c6         1 GC8      -0.075400
     22 C22          7.3400     0.0690     2.2110 c6         1 GC8      -0.075400
     23 C23          6.5550     0.6970     1.0700 c6         1 GC8       0.168300
     24 C24         -5.3960     0.7120     0.0990 ca         1 GC8       0.090000
     25 CL2         -5.0090     2.3810    -0.1000 cl         1 GC8      -0.160000
     26 C26         -6.7120     0.3350     0.2830 ca         1 GC8      -0.062000
     27 H03         -6.2410    -3.0130     0.5390 ha         1 GC8       0.132000
     28 H26         -7.4910     1.0830     0.3010 ha         1 GC8       0.146000
     29 H04         -3.9280    -2.3370     0.2200 ha         1 GC8       0.120000
     30 H071        -1.9550    -1.2060     0.7910 h1         1 GC8       0.053200
     31 H072        -2.1990    -1.4190    -0.9480 h1         1 GC8       0.053200
     32 H10          0.1860    -1.5540     0.0730 hn         1 GC8       0.147000
     33 H12          1.3980     1.7690    -1.1470 ha         1 GC8       0.127500
     34 H16          2.2890    -2.2530     0.0590 ha         1 GC8       0.127500
     35 H13          3.7690     2.1650    -1.5140 ha         1 GC8       0.121000
     36 H15          4.6720    -1.8270    -0.3050 ha         1 GC8       0.121000
     37 H171         6.1490    -0.0660    -2.1430 h1         1 GC8       0.036700
     38 H172         6.0260     1.5190    -1.4010 h1         1 GC8       0.036700
     39 H191         8.1570    -0.7180    -1.4920 h1         1 GC8       0.030950
     40 H192         8.5170     0.8540    -0.7780 h1         1 GC8       0.030950
     41 H231         6.8890     1.7420     0.9270 h1         1 GC8       0.030950
     42 H232         5.4960     0.7420     1.3300 h1         1 GC8       0.030950
     43 H201         8.6110    -1.8510     0.6330 hc         1 GC8       0.045700
     44 H202         9.9850    -0.8470     0.1880 hc         1 GC8       0.045700
     45 H211         9.3620    -0.5920     2.6270 hc         1 GC8       0.038700
     46 H212         9.2580     0.9200     1.7420 hc         1 GC8       0.038700
     47 H221         6.9160    -0.9150     2.4330 hc         1 GC8       0.045700
     48 H222         7.2250     0.6800     3.1080 hc         1 GC8       0.045700
@<TRIPOS>BOND
     1     1     2 1   
     2     2     3 ar  
     3     2    26 ar  
     4     3     4 ar  
     5     3    27 1   
     6     4     5 ar  
     7     4    29 1   
     8     5     6 1   
     9     5    24 ar  
    10     6     7 1   
    11     7     8 1   
    12     7    30 1   
    13     7    31 1   
    14     8     9 2   
    15     8    10 1   
    16    10    11 1   
    17    10    32 1   
    18    11    12 ar  
    19    11    16 ar  
    20    12    13 ar  
    21    12    33 1   
    22    13    14 ar  
    23    13    35 1   
    24    14    15 ar  
    25    14    17 1   
    26    15    16 ar  
    27    15    36 1   
    28    16    34 1   
    29    17    18 1   
    30    17    37 1   
    31    17    38 1   
    32    18    19 1   
    33    18    23 1   
    34    19    20 1   
    35    19    39 1   
    36    19    40 1   
    37    20    21 1   
    38    20    43 1   
    39    20    44 1   
    40    21    22 1   
    41    21    45 1   
    42    21    46 1   
    43    22    23 1   
    44    22    47 1   
    45    22    48 1   
    46    23    41 1   
    47    23    42 1   
    48    24    25 1   
    49    24    26 ar  
    50    26    28 1   
@<TRIPOS>SUBSTRUCTURE
     1 GC8         1 TEMP              0 ****  ****    0 ROOT
