@<TRIPOS>MOLECULE
GC8
   48    50     1     0     0
SMALL
No Charge or Current Charge


@<TRIPOS>ATOM
      1 Cl1         -8.8260    -1.5710     0.8500 cl         1 GC8      -0.191000
      2 C02         -7.1770    -1.0270     0.5740 ca         1 GC8       0.088000
      3 C03         -6.1310    -1.9630     0.5120 ca         1 GC8      -0.063000
      4 C04         -4.8090    -1.5320     0.2910 ca         1 GC8      -0.190000
      5 C05         -4.5310    -0.1550     0.1310 ca         1 GC8       0.147100
      6 O06         -3.2480     0.3130    -0.0880 os         1 GC8      -0.290100
      7 C07         -2.1020    -0.5670    -0.1680 c3         1 GC8       0.070600
      8 C08         -0.7880     0.2040    -0.4190 c          1 GC8       0.608100
      9 O09         -0.7470     1.4270    -0.5330 o          1 GC8      -0.535100
     10 N10          0.3260    -0.6240    -0.5000 ns         1 GC8      -0.149000
     11 C11          1.7090    -0.3590    -0.7120 ca         1 GC8      -0.023000
     12 C12          2.2430     0.9370    -0.8810 ca         1 GC8      -0.152000
     13 C13          3.6230     1.1180    -1.0860 ca         1 GC8      -0.070500
     14 C14          4.4900     0.0100    -1.1240 ca         1 GC8      -0.108300
     15 C15          3.9610    -1.2820    -0.9550 ca         1 GC8      -0.070500
     16 C16          2.5820    -1.4620    -0.7510 ca         1 GC8      -0.152000
     17 C17          5.9880     0.2030    -1.3460 c3         1 GC8       0.221100
     18 N18          6.8110    -0.1680    -0.1700 n3         1 GC8      -0.725600
     19 C19          8.2680    -0.1520    -0.4820 c6         1 GC8       0.168300
     20 C20          9.1150    -0.6560     0.7120 c6         1 GC8      -0.075400
     21 C21          8.8210     0.1660     1.9880 c6         1 GC8      -0.075400
     22 C22          7.3020     0.1760     2.2740 c6         1 GC8      -0.075400
     23 C23          6.5040     0.6550     1.0360 c6         1 GC8       0.168300
     24 C24         -5.5900     0.7780     0.1940 ca         1 GC8       0.090000
     25 Cl2         -5.2830     2.5040    -0.0010 cl         1 GC8      -0.160000
     26 C26         -6.9080     0.3420     0.4150 ca         1 GC8      -0.062000
     27 H03         -6.3460    -3.0220     0.6360 ha         1 GC8       0.132000
     28 H26         -7.7190     1.0630     0.4630 ha         1 GC8       0.146000
     29 H04         -4.0210    -2.2790     0.2490 ha         1 GC8       0.120000
     30 H071        -1.9820    -1.1300     0.7660 h1         1 GC8       0.053200
     31 H072        -2.2240    -1.2860    -0.9880 h1         1 GC8       0.053200
     32 H10          0.1170    -1.6070    -0.3850 hn         1 GC8       0.147000
     33 H12          1.6120     1.8190    -0.8570 ha         1 GC8       0.127500
     34 H16          2.1930    -2.4700    -0.6200 ha         1 GC8       0.127500
     35 H13          4.0180     2.1230    -1.2130 ha         1 GC8       0.121000
     36 H15          4.6220    -2.1460    -0.9780 ha         1 GC8       0.121000
     37 H171         6.2790    -0.4120    -2.2090 h1         1 GC8       0.036700
     38 H172         6.1820     1.2480    -1.6240 h1         1 GC8       0.036700
     39 H191         8.4770    -0.7890    -1.3540 h1         1 GC8       0.030950
     40 H192         8.5880     0.8680    -0.7440 h1         1 GC8       0.030950
     41 H231         6.7410     1.7120     0.8430 h1         1 GC8       0.030950
     42 H232         5.4330     0.6040     1.2780 h1         1 GC8       0.030950
     43 H201         8.8960    -1.7170     0.8950 hc         1 GC8       0.045700
     44 H202        10.1830    -0.5940     0.4630 hc         1 GC8       0.045700
     45 H211         9.3660    -0.2530     2.8440 hc         1 GC8       0.038700
     46 H212         9.1810     1.1970     1.8560 hc         1 GC8       0.038700
     47 H221         6.9710    -0.8330     2.5540 hc         1 GC8       0.045700
     48 H222         7.0860     0.8280     3.1310 hc         1 GC8       0.045700
@<TRIPOS>BOND
     1     1     2 1   
     2     2     3 ar  
     3     2    26 ar  
     4     3     4 ar  
     5     3    27 1   
     6     4     5 ar  
     7     4    29 1   
     8     5     6 1   
     9     5    24 ar  
    10     6     7 1   
    11     7     8 1   
    12     7    30 1   
    13     7    31 1   
    14     8     9 2   
    15     8    10 1   
    16    10    11 1   
    17    10    32 1   
    18    11    12 ar  
    19    11    16 ar  
    20    12    13 ar  
    21    12    33 1   
    22    13    14 ar  
    23    13    35 1   
    24    14    15 ar  
    25    14    17 1   
    26    15    16 ar  
    27    15    36 1   
    28    16    34 1   
    29    17    18 1   
    30    17    37 1   
    31    17    38 1   
    32    18    19 1   
    33    18    23 1   
    34    19    20 1   
    35    19    39 1   
    36    19    40 1   
    37    20    21 1   
    38    20    43 1   
    39    20    44 1   
    40    21    22 1   
    41    21    45 1   
    42    21    46 1   
    43    22    23 1   
    44    22    47 1   
    45    22    48 1   
    46    23    41 1   
    47    23    42 1   
    48    24    25 1   
    49    24    26 ar  
    50    26    28 1   
@<TRIPOS>SUBSTRUCTURE
     1 GC8         1 TEMP              0 ****  ****    0 ROOT
