@<TRIPOS>MOLECULE
GC9
   37    37     1     0     0
SMALL
bcc


@<TRIPOS>ATOM
      1 CAA          0.6410     2.2180     0.7470 c6         1 GC9       0.200300
      2 CAB         -0.7960     2.6120     0.5820 c2         1 GC9      -0.385200
      3 CAC         -1.7310     1.7780     0.1280 ce         1 GC9       0.055900
      4 CAE         -0.2820    -0.0590     0.4020 c6         1 GC9       0.099100
      5 CAF          0.8890     0.8770     0.0630 c6         1 GC9       0.075700
      6 CAG         -3.1740     2.1860    -0.1520 c          1 GC9       0.936800
      7 CAJ         -0.1610    -1.4850    -0.1570 c3         1 GC9       0.120100
      8 CAL         -1.4800    -2.2630    -0.0310 c3         1 GC9       0.115100
      9 CAM         -1.3630    -3.6260    -0.6930 c3         1 GC9       0.104400
     10 CAS          4.2100    -0.8910     0.2980 c3         1 GC9       0.049400
     11 NAP          2.1770     0.3640     0.4460 ns         1 GC9      -0.556900
     12 OAD         -1.4730     0.4790    -0.1420 os         1 GC9      -0.284900
     13 OAH         -3.9030     1.3130    -0.6490 o          1 GC9      -0.797800
     14 OAI         -3.4750     3.3580     0.1400 o          1 GC9      -0.797800
     15 OAK          0.8990    -2.1870     0.4550 oh         1 GC9      -0.610800
     16 OAN         -1.8970    -2.3580     1.3160 oh         1 GC9      -0.570800
     17 OAO         -2.6340    -4.2340    -0.6990 oh         1 GC9      -0.582800
     18 OAR          2.8480    -0.3340    -1.6020 o          1 GC9      -0.574100
     19 OAT          5.1550    -1.2580    -0.6640 oh         1 GC9      -0.558800
     20 OAU          1.5190     3.1620     0.1730 oh         1 GC9      -0.596800
     21 H1           0.8670     2.1010     1.8190 h1         1 GC9       0.000700
     22 H2          -1.0820     3.6270     0.8230 ha         1 GC9       0.157000
     23 H3          -0.3880    -0.1160     1.4980 h1         1 GC9       0.035700
     24 H4           0.8970     1.0290    -1.0190 h1         1 GC9       0.112700
     25 H5           0.0950    -1.4200    -1.2200 h1         1 GC9       0.098700
     26 H6          -2.2600    -1.7030    -0.5530 h1         1 GC9       0.139700
     27 H7          -0.9760    -3.4870    -1.7120 h1         1 GC9       0.020700
     28 H8          -0.6260    -4.2390    -0.1570 h1         1 GC9       0.020700
     29 H9           4.6130    -0.1860     1.0370 h1         1 GC9       0.025700
     30 H10          3.8300    -1.7540     0.8630 h1         1 GC9       0.025700
     31 H11          2.3860     0.3330     1.4330 hn         1 GC9       0.293500
     32 H13          0.8060    -2.1290     1.4110 ho         1 GC9       0.390000
     33 H14         -1.4230    -3.0790     1.7430 ho         1 GC9       0.376000
     34 H15         -2.5380    -5.1190    -1.0620 ho         1 GC9       0.390000
     35 H16          5.8610    -1.7320    -0.2150 ho         1 GC9       0.392000
     36 H17          1.4430     3.9820     0.6690 ho         1 GC9       0.397000
     37 CAQ          3.0170    -0.2620    -0.3970 c          1 GC9       0.682100
@<TRIPOS>BOND
     1     1     2 1   
     2     1     5 1   
     3     1    20 1   
     4     1    21 1   
     5     2     3 2   
     6     2    22 1   
     7     3     6 1   
     8     3    12 1   
     9     4     5 1   
    10     4     7 1   
    11     4    12 1   
    12     4    23 1   
    13     5    11 1   
    14     5    24 1   
    15     6    13 1   
    16     6    14 1   
    17     7     8 1   
    18     7    15 1   
    19     7    25 1   
    20     8     9 1   
    21     8    16 1   
    22     8    26 1   
    23     9    17 1   
    24     9    27 1   
    25     9    28 1   
    26    10    19 1   
    27    10    29 1   
    28    10    30 1   
    29    10    37 1   
    30    11    31 1   
    31    11    37 1   
    32    15    32 1   
    33    16    33 1   
    34    17    34 1   
    35    18    37 2   
    36    19    35 1   
    37    20    36 1   
@<TRIPOS>SUBSTRUCTURE
     1 GC9         1 TEMP              0 ****  ****    0 ROOT
