@<TRIPOS>MOLECULE
GC9
   37    37     1     0     0
SMALL
No Charge or Current Charge


@<TRIPOS>ATOM
      1 CAA          0.6410     2.2630     0.7390 c6         1 GC9       0.223500
      2 CAB         -0.7730     2.7150     0.4760 c2         1 GC9      -0.435200
      3 CAC         -1.7580     1.8610     0.0820 ce         1 GC9       0.055900
      4 CAE         -0.2660    -0.0600     0.4390 c6         1 GC9       0.122300
      5 CAF          0.9180     0.8900     0.0630 c6         1 GC9       0.075700
      6 CAG         -3.1980     2.3130    -0.2110 c          1 GC9       0.726200
      7 CAJ         -0.1670    -1.5340    -0.1090 c3         1 GC9       0.143300
      8 CAL         -1.4670    -2.3780     0.1010 c3         1 GC9       0.138300
      9 CAM         -1.4800    -3.6930    -0.7270 c3         1 GC9       0.127600
     10 CAS          4.4430    -0.7690     0.2790 c3         1 GC9       0.072600
     11 NAP          2.2540     0.3740     0.4400 ns         1 GC9      -0.489900
     12 OAD         -1.5060     0.4990    -0.0640 os         1 GC9      -0.308100
     13 OAH         -4.0240     1.4740    -0.5580 o          1 GC9      -0.692500
     14 OAI         -3.4840     3.5000    -0.0910 o          1 GC9      -0.692500
     15 OAK          0.9160    -2.2720     0.4980 oh         1 GC9      -0.733000
     16 OAN         -1.6110    -2.7140     1.4980 oh         1 GC9      -0.633000
     17 OAO         -2.6830    -4.4340    -0.4560 oh         1 GC9      -0.705000
     18 OAR          2.9040    -0.3850    -1.6100 o          1 GC9      -0.574100
     19 OAT          5.5030    -1.1340    -0.6400 oh         1 GC9      -0.621000
     20 OAU          1.5220     3.2660     0.2440 oh         1 GC9      -0.659000
     21 H1           0.7730     2.1560     1.8250 h1         1 GC9       0.000700
     22 H2          -0.9830     3.7780     0.6020 ha         1 GC9       0.207000
     23 H3          -0.3420    -0.1080     1.5350 h1         1 GC9       0.035700
     24 H4           0.8940     1.0420    -1.0250 h1         1 GC9       0.112700
     25 H5           0.0020    -1.4470    -1.1920 h1         1 GC9       0.098700
     26 H6          -2.3280    -1.7860    -0.2440 h1         1 GC9       0.139700
     27 H7          -1.4220    -3.4430    -1.7950 h1         1 GC9       0.020700
     28 H8          -0.5980    -4.2980    -0.4780 h1         1 GC9       0.020700
     29 H9           4.7910     0.0250     0.9530 h1         1 GC9       0.025700
     30 H10          4.1670    -1.6280     0.9040 h1         1 GC9       0.025700
     31 H11          2.5350     0.4440     1.4100 hn         1 GC9       0.293500
     32 H13          0.5040    -2.6940     1.2900 ho         1 GC9       0.489000
     33 H14         -2.2590    -3.4550     1.5120 ho         1 GC9       0.415000
     34 H15         -2.6650    -5.2370    -1.0280 ho         1 GC9       0.489000
     35 H16          6.2630    -1.4490    -0.1010 ho         1 GC9       0.431000
     36 H17          1.3380     4.0720     0.7710 ho         1 GC9       0.436000
     37 CAQ          3.1380    -0.2580    -0.4110 c          1 GC9       0.615100
@<TRIPOS>BOND
     1     1     2 1   
     2     1     5 1   
     3     1    20 1   
     4     1    21 1   
     5     2     3 2   
     6     2    22 1   
     7     3     6 1   
     8     3    12 1   
     9     4     5 1   
    10     4     7 1   
    11     4    12 1   
    12     4    23 1   
    13     5    11 1   
    14     5    24 1   
    15     6    13 1   
    16     6    14 1   
    17     7     8 1   
    18     7    15 1   
    19     7    25 1   
    20     8     9 1   
    21     8    16 1   
    22     8    26 1   
    23     9    17 1   
    24     9    27 1   
    25     9    28 1   
    26    10    19 1   
    27    10    29 1   
    28    10    30 1   
    29    10    37 1   
    30    11    31 1   
    31    11    37 1   
    32    15    32 1   
    33    16    33 1   
    34    17    34 1   
    35    18    37 2   
    36    19    35 1   
    37    20    36 1   
@<TRIPOS>SUBSTRUCTURE
     1 GC9         1 TEMP              0 ****  ****    0 ROOT
