@<TRIPOS>MOLECULE
GCA
   50    51     1     0     0
SMALL
bcc


@<TRIPOS>ATOM
      1 C1           0.4200     0.7830    -1.2430 ca         1 GCA      -0.057300
      2 C2           0.4590     1.4550    -2.4600 ca         1 GCA      -0.127500
      3 C3           0.9010     0.8280    -3.6190 ca         1 GCA      -0.069800
      4 C4           1.3020    -0.5040    -3.5450 ca         1 GCA      -0.130000
      5 C5           1.2750    -1.1990    -2.3420 ca         1 GCA      -0.069800
      6 C6           0.8330    -0.5420    -1.1960 ca         1 GCA      -0.127500
      7 CP           0.9610     1.5810    -4.9170 c3         1 GCA      -0.047300
      8 CQ           1.7230    -2.6300    -2.2680 c3         1 GCA      -0.047300
      9 CG          -0.0420     1.5470    -0.0200 c3         1 GCA      -0.002900
     10 C7          -0.2990     0.6930     1.1910 cc         1 GCA       0.112400
     11 C12          0.7010     0.3810     2.0580 cd         1 GCA      -0.260400
     12 CF           2.1320     0.8420     1.8760 c3         1 GCA       0.010500
     13 CH           2.5210     1.9080     2.9020 c3         1 GCA      -0.086600
     14 CI           3.1370    -0.3120     1.8510 c3         1 GCA      -0.086600
     15 C11          0.3820    -0.4300     3.2180 c          1 GCA       0.731700
     16 O11          1.1450    -0.7160     4.1250 o          1 GCA      -0.606500
     17 N8          -1.5920     0.2080     1.3530 n          1 GCA      -0.417000
     18 C9          -1.9200    -0.6600     2.3730 c          1 GCA       0.824500
     19 O9          -3.0200    -1.1610     2.5080 o          1 GCA      -0.644500
     20 N10         -0.9100    -0.9130     3.2520 ns         1 GCA      -0.599500
     21 CA          -2.6800     0.6180     0.4550 c3         1 GCA       0.299800
     22 OB          -2.5080     0.1910    -0.8470 os         1 GCA      -0.405600
     23 CC          -2.6340    -1.2080    -1.0440 c3         1 GCA       0.133400
     24 CD          -2.4860    -1.4980    -2.5190 c3         1 GCA      -0.096100
     25 H21          0.1300     2.4890    -2.5080 ha         1 GCA       0.130500
     26 H41          1.6360    -1.0080    -4.4460 ha         1 GCA       0.129000
     27 H61          0.8010    -1.0960    -0.2650 ha         1 GCA       0.130500
     28 HP1          1.8580     2.2030    -4.9660 hc         1 GCA       0.042867
     29 HP2          0.9870     0.9070    -5.7730 hc         1 GCA       0.042867
     30 HP3          0.1040     2.2440    -5.0360 hc         1 GCA       0.042867
     31 HQ1          2.7930    -2.6970    -2.0600 hc         1 GCA       0.042867
     32 HQ2          1.2060    -3.1690    -1.4750 hc         1 GCA       0.042867
     33 HQ3          1.5430    -3.1560    -3.2060 hc         1 GCA       0.042867
     34 HG1         -0.9140     2.1430    -0.2840 hc         1 GCA       0.070200
     35 HG2          0.7160     2.2880     0.2370 hc         1 GCA       0.070200
     36 HF1          2.2060     1.3060     0.8930 hc         1 GCA       0.044700
     37 HH1          3.5170     2.2970     2.6830 hc         1 GCA       0.039200
     38 HH2          1.8250     2.7480     2.8820 hc         1 GCA       0.039200
     39 HH3          2.5360     1.5050     3.9130 hc         1 GCA       0.039200
     40 HI1          3.2510    -0.7850     2.8230 hc         1 GCA       0.039200
     41 HI2          2.8450    -1.0770     1.1290 hc         1 GCA       0.039200
     42 HI3          4.1140     0.0660     1.5480 hc         1 GCA       0.039200
     43 HN1         -1.1490    -1.5140     4.0310 hn         1 GCA       0.343500
     44 HA1         -2.7300     1.7050     0.4400 h2         1 GCA       0.077200
     45 HA2         -3.6040     0.2430     0.8960 h2         1 GCA       0.077200
     46 HC1         -3.6080    -1.5530    -0.6760 h1         1 GCA       0.033200
     47 HC2         -1.8630    -1.7480    -0.4820 h1         1 GCA       0.033200
     48 HD1         -2.5770    -2.5710    -2.6910 hc         1 GCA       0.047033
     49 HD2         -3.2590    -1.0000    -3.1050 hc         1 GCA       0.047033
     50 HD3         -1.5080    -1.1800    -2.8820 hc         1 GCA       0.047033
@<TRIPOS>BOND
     1     1     2 ar  
     2     1     6 ar  
     3     1     9 1   
     4     2     3 ar  
     5     2    25 1   
     6     3     4 ar  
     7     3     7 1   
     8     4     5 ar  
     9     4    26 1   
    10     5     6 ar  
    11     5     8 1   
    12     6    27 1   
    13     7    28 1   
    14     7    29 1   
    15     7    30 1   
    16     8    31 1   
    17     8    32 1   
    18     8    33 1   
    19     9    10 1   
    20     9    34 1   
    21     9    35 1   
    22    10    11 2   
    23    10    17 1   
    24    11    12 1   
    25    11    15 1   
    26    12    13 1   
    27    12    14 1   
    28    12    36 1   
    29    13    37 1   
    30    13    38 1   
    31    13    39 1   
    32    14    40 1   
    33    14    41 1   
    34    14    42 1   
    35    15    16 2   
    36    15    20 1   
    37    17    18 1   
    38    17    21 1   
    39    18    19 2   
    40    18    20 1   
    41    20    43 1   
    42    21    22 1   
    43    21    44 1   
    44    21    45 1   
    45    22    23 1   
    46    23    24 1   
    47    23    46 1   
    48    23    47 1   
    49    24    48 1   
    50    24    49 1   
    51    24    50 1   
@<TRIPOS>SUBSTRUCTURE
     1 GCA         1 TEMP              0 ****  ****    0 ROOT
