@<TRIPOS>MOLECULE
GCA
   50    51     1     0     0
SMALL
No Charge or Current Charge


@<TRIPOS>ATOM
      1 C1           0.3260     0.9070    -1.4100 ca         1 GCA      -0.057300
      2 C2           1.1690     1.7020    -2.2100 ca         1 GCA      -0.109500
      3 C3           1.9550     1.1190    -3.2210 ca         1 GCA      -0.069800
      4 C4           1.8960    -0.2710    -3.4310 ca         1 GCA      -0.112000
      5 C5           1.0550    -1.0760    -2.6410 ca         1 GCA      -0.069800
      6 C6           0.2720    -0.4820    -1.6360 ca         1 GCA      -0.109500
      7 CP           2.8700     1.9850    -4.0740 c3         1 GCA      -0.047300
      8 CQ           0.9880    -2.5780    -2.8740 c3         1 GCA      -0.047300
      9 CG          -0.5170     1.5460    -0.3070 c3         1 GCA      -0.002900
     10 C7          -0.5300     0.7370     0.9930 cc         1 GCA       0.112400
     11 C12          0.6300     0.5680     1.7550 cd         1 GCA      -0.260400
     12 CF           1.9870     1.2110     1.4260 c3         1 GCA       0.010500
     13 CH           2.4950     2.1690     2.5300 c3         1 GCA      -0.086600
     14 CI           3.0520     0.1740     1.0000 c3         1 GCA      -0.086600
     15 C11          0.5990    -0.3060     2.9650 c          1 GCA       0.589200
     16 O11          1.5440    -0.5500     3.6960 o          1 GCA      -0.531000
     17 N8          -1.7220     0.0970     1.4110 n          1 GCA      -0.350000
     18 C9          -1.7590    -0.7180     2.5540 c          1 GCA       0.615000
     19 O9          -2.7630    -1.2870     2.9510 o          1 GCA      -0.569000
     20 N10         -0.6030    -0.8570     3.2270 ns         1 GCA      -0.465500
     21 CA          -3.0210     0.3030     0.7180 c3         1 GCA       0.323000
     22 OB          -3.0600    -0.4630    -0.5030 os         1 GCA      -0.452000
     23 CC          -3.1350    -1.8880    -0.3390 c3         1 GCA       0.156600
     24 CD          -3.1940    -2.5090    -1.7430 c3         1 GCA      -0.096100
     25 H21          1.2180     2.7760    -2.0440 ha         1 GCA       0.112500
     26 H41          2.5030    -0.7270    -4.2100 ha         1 GCA       0.111000
     27 H61         -0.3750    -1.1050    -1.0260 ha         1 GCA       0.112500
     28 HP1          3.8540     2.0930    -3.6030 hc         1 GCA       0.042867
     29 HP2          3.0210     1.5490    -5.0690 hc         1 GCA       0.042867
     30 HP3          2.4520     2.9890    -4.2140 hc         1 GCA       0.042867
     31 HQ1          1.9460    -2.9700    -3.2360 hc         1 GCA       0.042867
     32 HQ2          0.7410    -3.1150    -1.9510 hc         1 GCA       0.042867
     33 HQ3          0.2220    -2.8230    -3.6190 hc         1 GCA       0.042867
     34 HG1         -1.5120     1.7280    -0.7190 hc         1 GCA       0.070200
     35 HG2         -0.1490     2.5540    -0.0830 hc         1 GCA       0.070200
     36 HF1          1.8830     1.8640     0.5560 hc         1 GCA       0.044700
     37 HH1          3.3560     2.7440     2.1680 hc         1 GCA       0.039200
     38 HH2          1.7100     2.8800     2.8110 hc         1 GCA       0.039200
     39 HH3          2.8130     1.6310     3.4300 hc         1 GCA       0.039200
     40 HI1          3.3480    -0.4730     1.8320 hc         1 GCA       0.039200
     41 HI2          2.6680    -0.4600     0.1910 hc         1 GCA       0.039200
     42 HI3          3.9530     0.6800     0.6310 hc         1 GCA       0.039200
     43 HN1         -0.6430    -1.4480     4.0410 hn         1 GCA       0.343500
     44 HA1         -3.1300     1.3750     0.5200 h2         1 GCA       0.077200
     45 HA2         -3.8490     0.0270     1.3810 h2         1 GCA       0.077200
     46 HC1         -4.0320    -2.1710     0.2270 h1         1 GCA       0.033200
     47 HC2         -2.2520    -2.2740     0.1880 h1         1 GCA       0.033200
     48 HD1         -3.2440    -3.6020    -1.6730 hc         1 GCA       0.047033
     49 HD2         -4.0800    -2.1570    -2.2840 hc         1 GCA       0.047033
     50 HD3         -2.3020    -2.2430    -2.3220 hc         1 GCA       0.047033
@<TRIPOS>BOND
     1     1     2 ar  
     2     1     6 ar  
     3     1     9 1   
     4     2     3 ar  
     5     2    25 1   
     6     3     4 ar  
     7     3     7 1   
     8     4     5 ar  
     9     4    26 1   
    10     5     6 ar  
    11     5     8 1   
    12     6    27 1   
    13     7    28 1   
    14     7    29 1   
    15     7    30 1   
    16     8    31 1   
    17     8    32 1   
    18     8    33 1   
    19     9    10 1   
    20     9    34 1   
    21     9    35 1   
    22    10    11 2   
    23    10    17 1   
    24    11    12 1   
    25    11    15 1   
    26    12    13 1   
    27    12    14 1   
    28    12    36 1   
    29    13    37 1   
    30    13    38 1   
    31    13    39 1   
    32    14    40 1   
    33    14    41 1   
    34    14    42 1   
    35    15    16 2   
    36    15    20 1   
    37    17    18 1   
    38    17    21 1   
    39    18    19 2   
    40    18    20 1   
    41    20    43 1   
    42    21    22 1   
    43    21    44 1   
    44    21    45 1   
    45    22    23 1   
    46    23    24 1   
    47    23    46 1   
    48    23    47 1   
    49    24    48 1   
    50    24    49 1   
    51    24    50 1   
@<TRIPOS>SUBSTRUCTURE
     1 GCA         1 TEMP              0 ****  ****    0 ROOT
