@<TRIPOS>MOLECULE
GCB
   20    20     1     0     0
SMALL
bcc


@<TRIPOS>ATOM
      1 C1           1.1630    -1.4180     0.0240 c          1 GCB       0.714600
      2 C2           1.8450    -0.1030    -0.3340 c6         1 GCB      -0.005900
      3 C3           1.1170     1.1180     0.2090 c6         1 GCB       0.149100
      4 C4          -0.3400     1.0090    -0.1930 c6         1 GCB       0.151100
      5 C5          -0.9260    -0.2730     0.4130 c6         1 GCB      -0.034900
      6 C6          -2.3790    -0.5020    -0.0530 c          1 GCB       0.940600
      7 O1           1.7830    -2.4440     0.1250 o          1 GCB      -0.623500
      8 O2           3.1640    -0.0760     0.1230 oh         1 GCB      -0.598800
      9 O3           1.6470     2.3020    -0.3220 oh         1 GCB      -0.578800
     10 O4          -1.0500     2.1160     0.2780 oh         1 GCB      -0.633800
     11 O5          -0.1570    -1.4440     0.1240 os         1 GCB      -0.368900
     12 O6A         -3.1020     0.5230     0.0430 o          1 GCB      -0.796300
     13 O6B         -2.7100    -1.6190    -0.4500 o          1 GCB      -0.796300
     14 HC2          1.7960    -0.0490    -1.4350 h1         1 GCB       0.057700
     15 HC3          1.1790     1.1120     1.3100 h1         1 GCB       0.047700
     16 HC4         -0.3920     0.9360    -1.2940 h1         1 GCB       0.039700
     17 HC5         -0.9340    -0.1490     1.5040 h1         1 GCB       0.049700
     18 HO2          3.6750    -0.7430    -0.3460 ho         1 GCB       0.416000
     19 HO3          2.5720     2.3650    -0.0620 ho         1 GCB       0.398000
     20 HO4         -1.9880     1.8160     0.2460 ho         1 GCB       0.473000
@<TRIPOS>BOND
     1     1     2 1   
     2     1     7 2   
     3     1    11 1   
     4     2     3 1   
     5     2     8 1   
     6     2    14 1   
     7     3     4 1   
     8     3     9 1   
     9     3    15 1   
    10     4     5 1   
    11     4    10 1   
    12     4    16 1   
    13     5     6 1   
    14     5    11 1   
    15     5    17 1   
    16     6    12 1   
    17     6    13 1   
    18     8    18 1   
    19     9    19 1   
    20    10    20 1   
@<TRIPOS>SUBSTRUCTURE
     1 GCB         1 TEMP              0 ****  ****    0 ROOT
