@<TRIPOS>MOLECULE
GCB
   20    20     1     0     0
SMALL
No Charge or Current Charge


@<TRIPOS>ATOM
      1 C1           1.1780    -1.4550    -0.0210 c          1 GCB       0.639100
      2 C2           1.8600    -0.0500    -0.1950 c6         1 GCB       0.017300
      3 C3           0.9730     1.1110     0.3080 c6         1 GCB       0.172300
      4 C4          -0.4570     0.9730    -0.2660 c6         1 GCB       0.174300
      5 C5          -1.0570    -0.3550     0.2490 c6         1 GCB      -0.011700
      6 C6          -2.5240    -0.5300    -0.2590 c          1 GCB       0.730000
      7 O1           1.8360    -2.4800    -0.1500 o          1 GCB      -0.548000
      8 O2           3.1840     0.0180     0.4170 oh         1 GCB      -0.721000
      9 O3           1.5560     2.3680    -0.0720 oh         1 GCB      -0.641000
     10 O4          -1.2460     2.1070     0.1280 oh         1 GCB      -0.756000
     11 O5          -0.1980    -1.4930    -0.0880 os         1 GCB      -0.392100
     12 O6A         -3.3880    -0.4640     0.6080 o          1 GCB      -0.691000
     13 O6B         -2.6850    -1.2920    -1.2060 o          1 GCB      -0.691000
     14 HC2          1.9540     0.0640    -1.2860 h1         1 GCB       0.057700
     15 HC3          0.9150     1.0460     1.4050 h1         1 GCB       0.047700
     16 HC4         -0.3970     0.9280    -1.3640 h1         1 GCB       0.039700
     17 HC5         -1.1070    -0.2990     1.3460 h1         1 GCB       0.049700
     18 HO2          3.6500    -0.8280     0.1990 ho         1 GCB       0.515000
     19 HO3          2.5240     2.2410     0.0590 ho         1 GCB       0.437000
     20 HO4         -0.6100     2.8670     0.0980 ho         1 GCB       0.572000
@<TRIPOS>BOND
     1     1     2 1   
     2     1     7 2   
     3     1    11 1   
     4     2     3 1   
     5     2     8 1   
     6     2    14 1   
     7     3     4 1   
     8     3     9 1   
     9     3    15 1   
    10     4     5 1   
    11     4    10 1   
    12     4    16 1   
    13     5     6 1   
    14     5    11 1   
    15     5    17 1   
    16     6    12 1   
    17     6    13 1   
    18     8    18 1   
    19     9    19 1   
    20    10    20 1   
@<TRIPOS>SUBSTRUCTURE
     1 GCB         1 TEMP              0 ****  ****    0 ROOT
