@<TRIPOS>MOLECULE
GCC
   64    68     1     0     0
SMALL
No Charge or Current Charge


@<TRIPOS>ATOM
      1 C10        -12.2400    15.8250    -6.0900 ca         1 GCC       0.282500
      2 C17        -13.9490    17.1040    -7.3300 ca         1 GCC      -0.027200
      3 C21        -18.6800    16.2240    -6.4240 c1         1 GCC      -0.113100
      4 C22        -19.9620    15.6210    -6.0040 c6         1 GCC       0.279100
      5 C24        -19.9340    14.0820    -6.2390 c6         1 GCC      -0.102400
      6 C26        -21.4450    13.6970    -4.2110 c6         1 GCC      -0.079400
      7 C28        -20.2360    15.9330    -4.5040 c6         1 GCC      -0.102400
      8 C1         -11.1130    23.4830   -11.8410 c3         1 GCC      -0.088100
      9 C2         -11.4970    22.0460   -11.4130 c6         1 GCC       0.144500
     10 C3         -12.1190    22.0130    -9.9840 c6         1 GCC       0.088000
     11 C5         -11.8290    19.8570    -8.6960 c          1 GCC       0.640300
     12 C7         -12.4870    18.6520    -8.1150 cc         1 GCC      -0.202400
     13 C8         -11.7670    17.6050    -7.5420 cd         1 GCC      -0.088100
     14 C11        -11.3770    14.7480    -6.3790 ca         1 GCC      -0.311000
     15 C12        -10.9140    13.9510    -5.3210 ca         1 GCC       0.170900
     16 C14        -12.0970    15.2420    -3.8730 ca         1 GCC       0.413900
     17 C18        -15.1670    16.5220    -6.9470 ca         1 GCC      -0.072000
     18 C19        -16.3510    17.2640    -7.1370 ca         1 GCC       0.034000
     19 C25        -21.2080    13.3730    -5.7060 c6         1 GCC      -0.078400
     20 C27        -21.5110    15.2240    -3.9690 c6         1 GCC      -0.078400
     21 C29        -16.2870    18.5720    -7.6730 ca         1 GCC      -0.102000
     22 C30        -15.0470    19.1340    -8.0430 ca         1 GCC      -0.078000
     23 C31        -13.8900    18.3480    -7.9030 ca         1 GCC      -0.068800
     24 C32        -13.4840    20.0450   -10.6210 c6         1 GCC       0.096000
     25 C33        -12.8670    20.1020   -12.0490 c6         1 GCC       0.132800
     26 N4         -12.5750    20.6470    -9.5980 n          1 GCC      -0.396800
     27 N9         -12.6750    16.5880    -7.1720 na         1 GCC      -0.103200
     28 N13        -11.2780    14.1990    -4.0500 nb         1 GCC      -0.256000
     29 N15        -12.4720    15.5000    -2.5990 nv         1 GCC      -1.063900
     30 N16        -12.5960    16.0610    -4.8070 nb         1 GCC      -0.290000
     31 N34        -12.4260    21.4720   -12.4180 n7         1 GCC      -0.864400
     32 O6         -10.6690    20.1450    -8.4220 o          1 GCC      -0.600100
     33 O23        -20.9770    16.2140    -6.8140 oh         1 GCC      -0.650000
     34 H1         -19.8120    13.8650    -7.3100 hc         1 GCC       0.056200
     35 H2         -19.0540    13.6510    -5.7400 hc         1 GCC       0.056200
     36 H3         -22.3770    13.2240    -3.8700 hc         1 GCC       0.042200
     37 H4         -20.6370    13.2620    -3.6060 hc         1 GCC       0.042200
     38 H5         -19.3750    15.6140    -3.9000 hc         1 GCC       0.056200
     39 H6         -20.3270    17.0180    -4.3530 hc         1 GCC       0.056200
     40 H7         -10.4000    23.9240   -11.1340 hc         1 GCC       0.040700
     41 H8         -10.6420    23.4900   -12.8310 hc         1 GCC       0.040700
     42 H9         -11.9920    24.1370   -11.8810 hc         1 GCC       0.040700
     43 H10        -10.5770    21.4410   -11.4010 h1         1 GCC       0.030700
     44 H11        -11.3890    22.3960    -9.2560 h1         1 GCC       0.068200
     45 H12        -12.9840    22.6910    -9.9530 h1         1 GCC       0.068200
     46 H13        -10.6930    17.5000    -7.4090 h4         1 GCC       0.231000
     47 H14        -11.0760    14.5330    -7.4010 ha         1 GCC       0.142000
     48 H15        -10.2480    13.1070    -5.4910 h4         1 GCC       0.025100
     49 H16        -15.1940    15.5300    -6.5030 ha         1 GCC       0.143000
     50 H17        -22.0850    13.6720    -6.2970 hc         1 GCC       0.041700
     51 H18        -21.1080    12.2860    -5.8370 hc         1 GCC       0.041700
     52 H19        -21.6210    15.4240    -2.8950 hc         1 GCC       0.041700
     53 H20        -22.4070    15.6400    -4.4510 hc         1 GCC       0.041700
     54 H21        -17.1960    19.1580    -7.7860 ha         1 GCC       0.125000
     55 H22        -15.0010    20.1580    -8.4010 ha         1 GCC       0.128000
     56 H23        -14.4370    20.5930   -10.6230 h1         1 GCC       0.064200
     57 H24        -13.7040    18.9950   -10.3920 h1         1 GCC       0.064200
     58 H25        -13.6030    19.7410   -12.7820 h1         1 GCC       0.037200
     59 H26        -12.0020    19.4220   -12.0880 h1         1 GCC       0.037200
     60 H27        -13.2600    16.1250    -2.4480 hn         1 GCC       0.504500
     61 H28        -12.3180    14.7840    -1.8930 hn         1 GCC       0.504500
     62 H29        -11.9540    21.4390   -13.3310 hn         1 GCC       0.413000
     63 H31        -21.8180    15.8060    -6.5250 ho         1 GCC       0.447000
     64 C20        -17.6140    16.7060    -6.7550 cg         1 GCC      -0.100000
@<TRIPOS>BOND
     1     1    14 ar  
     2     1    27 1   
     3     1    30 ar  
     4     2    17 ar  
     5     2    23 ar  
     6     2    27 1   
     7     3     4 1   
     8     3    64 3   
     9     4     5 1   
    10     4     7 1   
    11     4    33 1   
    12     5    19 1   
    13     5    34 1   
    14     5    35 1   
    15     6    19 1   
    16     6    20 1   
    17     6    36 1   
    18     6    37 1   
    19     7    20 1   
    20     7    38 1   
    21     7    39 1   
    22     8     9 1   
    23     8    40 1   
    24     8    41 1   
    25     8    42 1   
    26     9    10 1   
    27     9    31 1   
    28     9    43 1   
    29    10    26 1   
    30    10    44 1   
    31    10    45 1   
    32    11    12 1   
    33    11    26 1   
    34    11    32 2   
    35    12    13 2   
    36    12    23 1   
    37    13    27 1   
    38    13    46 1   
    39    14    15 ar  
    40    14    47 1   
    41    15    28 ar  
    42    15    48 1   
    43    16    28 ar  
    44    16    29 1   
    45    16    30 ar  
    46    17    18 ar  
    47    17    49 1   
    48    18    21 ar  
    49    18    64 1   
    50    19    50 1   
    51    19    51 1   
    52    20    52 1   
    53    20    53 1   
    54    21    22 ar  
    55    21    54 1   
    56    22    23 ar  
    57    22    55 1   
    58    24    25 1   
    59    24    26 1   
    60    24    56 1   
    61    24    57 1   
    62    25    31 1   
    63    25    58 1   
    64    25    59 1   
    65    29    60 1   
    66    29    61 1   
    67    31    62 1   
    68    33    63 1   
@<TRIPOS>SUBSTRUCTURE
     1 GCC         1 TEMP              0 ****  ****    0 ROOT
