@<TRIPOS>MOLECULE
GCC
   64    68     1     0     0
SMALL
bcc


@<TRIPOS>ATOM
      1 C10        -12.2360    16.0920    -6.0500 ca         1 GCC       0.610800
      2 C17        -14.0600    17.5680    -6.9220 ca         1 GCC      -0.027200
      3 C21        -18.7150    16.4230    -6.2000 c1         1 GCC      -0.113100
      4 C22        -19.9560    15.7490    -5.8090 c6         1 GCC       0.255900
      5 C24        -19.8220    14.2410    -6.0960 c6         1 GCC      -0.102400
      6 C26        -21.2650    13.6850    -4.1080 c6         1 GCC      -0.079400
      7 C28        -20.2090    15.9640    -4.3040 c6         1 GCC      -0.102400
      8 C1         -10.9710    23.0990   -12.1300 c3         1 GCC      -0.088100
      9 C2         -11.3510    21.7840   -11.4770 c6         1 GCC       0.144500
     10 C3         -12.2630    22.0210   -10.2780 c6         1 GCC       0.088000
     11 C5         -12.1270    20.3370    -8.5300 c          1 GCC       0.707300
     12 C7         -12.6930    19.1160    -7.9120 cc         1 GCC      -0.202400
     13 C8         -11.9330    18.1610    -7.3180 cd         1 GCC      -0.038100
     14 C11        -10.9350    15.6370    -6.2570 ca         1 GCC      -0.459600
     15 C12        -10.5720    14.5380    -5.5010 ca         1 GCC       0.499200
     16 C14        -12.6070    14.4390    -4.5420 ca         1 GCC       0.939900
     17 C18        -15.2420    16.9490    -6.5360 ca         1 GCC      -0.090000
     18 C19        -16.4430    17.5580    -6.8900 ca         1 GCC       0.034000
     19 C25        -21.0280    13.4500    -5.5950 c6         1 GCC      -0.078400
     20 C27        -21.4130    15.1720    -3.8030 c6         1 GCC      -0.078400
     21 C29        -16.4540    18.7700    -7.6070 ca         1 GCC      -0.120000
     22 C30        -15.2770    19.3700    -7.9960 ca         1 GCC      -0.096000
     23 C31        -14.0640    18.7630    -7.6680 ca         1 GCC      -0.068800
     24 C32        -13.3480    19.8900   -10.6420 c6         1 GCC       0.096000
     25 C33        -12.4320    19.6640   -11.8360 c6         1 GCC       0.132800
     26 N4         -12.6930    20.7670    -9.6830 n          1 GCC      -0.463800
     27 N9         -12.7290    17.2070    -6.7290 na         1 GCC      -0.103200
     28 N13        -11.3760    13.9280    -4.6460 nb         1 GCC      -0.782000
     29 N15        -13.4520    13.8570    -3.6790 nv         1 GCC      -0.953500
     30 N16        -13.0610    15.5070    -5.2080 nb         1 GCC      -0.816000
     31 N34        -12.0620    20.9370   -12.4230 n7         1 GCC      -0.809200
     32 O6         -11.2150    20.9320    -7.9700 o          1 GCC      -0.600100
     33 O23        -20.9770    16.3390    -6.5930 oh         1 GCC      -0.587800
     34 H1         -19.6730    14.0910    -7.1680 hc         1 GCC       0.056200
     35 H2         -18.9220    13.8750    -5.5940 hc         1 GCC       0.056200
     36 H3         -22.1520    13.1400    -3.7760 hc         1 GCC       0.042200
     37 H4         -20.4190    13.2840    -3.5400 hc         1 GCC       0.042200
     38 H5         -19.3170    15.6460    -3.7570 hc         1 GCC       0.056200
     39 H6         -20.3360    17.0320    -4.1110 hc         1 GCC       0.056200
     40 H7         -10.4310    23.7390   -11.4310 hc         1 GCC       0.040700
     41 H8         -10.3240    22.9340   -12.9940 hc         1 GCC       0.040700
     42 H9         -11.8580    23.6360   -12.4710 hc         1 GCC       0.040700
     43 H10        -10.4350    21.2940   -11.1050 h1         1 GCC       0.030700
     44 H11        -11.7640    22.6320    -9.5300 h1         1 GCC       0.068200
     45 H12        -13.1570    22.5590   -10.6130 h1         1 GCC       0.068200
     46 H13        -10.8580    18.1060    -7.2600 h4         1 GCC       0.181000
     47 H14        -10.2480    16.0730    -6.9650 ha         1 GCC       0.160000
     48 H15         -9.5740    14.1240    -5.6040 h4         1 GCC       0.025100
     49 H16        -15.2450    16.0300    -5.9730 ha         1 GCC       0.161000
     50 H17        -21.9260    13.7220    -6.1610 hc         1 GCC       0.041700
     51 H18        -20.8650    12.3890    -5.7930 hc         1 GCC       0.041700
     52 H19        -21.5220    15.3320    -2.7280 hc         1 GCC       0.041700
     53 H20        -22.3370    15.5530    -4.2530 hc         1 GCC       0.041700
     54 H21        -17.4020    19.2290    -7.8540 ha         1 GCC       0.143000
     55 H22        -15.2970    20.3010    -8.5480 ha         1 GCC       0.146000
     56 H23        -14.2810    20.3550   -10.9690 h1         1 GCC       0.064200
     57 H24        -13.5930    18.9340   -10.1870 h1         1 GCC       0.064200
     58 H25        -12.9610    19.0630   -12.5790 h1         1 GCC       0.037200
     59 H26        -11.5630    19.0780   -11.4980 h1         1 GCC       0.037200
     60 H27        -14.4190    14.1290    -3.6650 hn         1 GCC       0.449300
     61 H28        -13.2010    12.9830    -3.2510 hn         1 GCC       0.449300
     62 H29        -11.4800    20.7780   -13.2360 hn         1 GCC       0.357800
     63 H31        -21.8190    15.9300    -6.3670 ho         1 GCC       0.408000
     64 C20        -17.6750    16.9450    -6.5140 cg         1 GCC      -0.100000
@<TRIPOS>BOND
     1     1    14 ar  
     2     1    27 1   
     3     1    30 ar  
     4     2    17 ar  
     5     2    23 ar  
     6     2    27 1   
     7     3     4 1   
     8     3    64 3   
     9     4     5 1   
    10     4     7 1   
    11     4    33 1   
    12     5    19 1   
    13     5    34 1   
    14     5    35 1   
    15     6    19 1   
    16     6    20 1   
    17     6    36 1   
    18     6    37 1   
    19     7    20 1   
    20     7    38 1   
    21     7    39 1   
    22     8     9 1   
    23     8    40 1   
    24     8    41 1   
    25     8    42 1   
    26     9    10 1   
    27     9    31 1   
    28     9    43 1   
    29    10    26 1   
    30    10    44 1   
    31    10    45 1   
    32    11    12 1   
    33    11    26 1   
    34    11    32 2   
    35    12    13 2   
    36    12    23 1   
    37    13    27 1   
    38    13    46 1   
    39    14    15 ar  
    40    14    47 1   
    41    15    28 ar  
    42    15    48 1   
    43    16    28 ar  
    44    16    29 1   
    45    16    30 ar  
    46    17    18 ar  
    47    17    49 1   
    48    18    21 ar  
    49    18    64 1   
    50    19    50 1   
    51    19    51 1   
    52    20    52 1   
    53    20    53 1   
    54    21    22 ar  
    55    21    54 1   
    56    22    23 ar  
    57    22    55 1   
    58    24    25 1   
    59    24    26 1   
    60    24    56 1   
    61    24    57 1   
    62    25    31 1   
    63    25    58 1   
    64    25    59 1   
    65    29    60 1   
    66    29    61 1   
    67    31    62 1   
    68    33    63 1   
@<TRIPOS>SUBSTRUCTURE
     1 GCC         1 TEMP              0 ****  ****    0 ROOT
