@<TRIPOS>MOLECULE
GCD
   19    19     1     0     0
SMALL
No Charge or Current Charge


@<TRIPOS>ATOM
      1 C1          19.5860    28.0530    50.4970 c6         1 GCD       0.393300
      2 C2          18.1980    28.0120    49.7780 c6         1 GCD       0.139300
      3 C3          17.5330    29.3990    49.9930 c6         1 GCD       0.189500
      4 C4          17.5830    29.7910    51.4480 c2         1 GCD      -0.431200
      5 C5          18.4890    29.2680    52.3210 ce         1 GCD       0.060900
      6 C6          18.5440    29.6600    53.8080 c          1 GCD       0.726200
      7 O1          20.2720    26.8050    50.4290 oh         1 GCD      -0.698000
      8 O2          18.2760    27.7170    48.3610 oh         1 GCD      -0.662000
      9 O3          16.1730    29.3880    49.5640 oh         1 GCD      -0.737000
     10 O5          19.4360    28.3320    51.9010 os         1 GCD      -0.355100
     11 O6A         17.7380    30.4800    54.2350 o          1 GCD      -0.695000
     12 O6B         19.3930    29.1440    54.5280 o          1 GCD      -0.695000
     13 H1          20.2040    28.8430    50.0420 h2         1 GCD       0.020700
     14 H2          17.5820    27.2540    50.2860 h1         1 GCD       0.069700
     15 H3          18.0970    30.1500    49.4190 h1         1 GCD       0.017700
     16 HO1         20.8780    26.8270    51.2020 ho         1 GCD       0.510000
     17 HO2         17.4080    28.0040    47.9980 ho         1 GCD       0.442000
     18 HO3         15.8350    30.3030    49.6960 ho         1 GCD       0.497000
     19 H4          16.8540    30.5270    51.7880 ha         1 GCD       0.206000
@<TRIPOS>BOND
     1     1     2 1   
     2     1     7 1   
     3     1    10 1   
     4     1    13 1   
     5     2     3 1   
     6     2     8 1   
     7     2    14 1   
     8     3     4 1   
     9     3     9 1   
    10     3    15 1   
    11     4     5 2   
    12     4    19 1   
    13     5     6 1   
    14     5    10 1   
    15     6    11 1   
    16     6    12 1   
    17     7    16 1   
    18     8    17 1   
    19     9    18 1   
@<TRIPOS>SUBSTRUCTURE
     1 GCD         1 TEMP              0 ****  ****    0 ROOT
