@<TRIPOS>MOLECULE
GCD
   19    19     1     0     0
SMALL
bcc


@<TRIPOS>ATOM
      1 C1          19.4880    28.0470    50.6030 c6         1 GCD       0.346900
      2 C2          18.1620    28.0550    49.8580 c6         1 GCD       0.116100
      3 C3          17.5230    29.4250    50.0410 c6         1 GCD       0.166300
      4 C4          17.6220    29.8440    51.4760 c2         1 GCD      -0.381200
      5 C5          18.4420    29.2510    52.3470 ce         1 GCD       0.060900
      6 C6          18.5400    29.6410    53.8220 c          1 GCD       0.936800
      7 O1          20.1070    26.8310    50.4350 oh         1 GCD      -0.575800
      8 O2          18.4130    27.7590    48.5100 oh         1 GCD      -0.599800
      9 O3          16.1850    29.3250    49.5910 oh         1 GCD      -0.614800
     10 O5          19.2670    28.2360    51.9920 os         1 GCD      -0.331900
     11 O6A         17.7230    30.4930    54.2130 o          1 GCD      -0.800300
     12 O6B         19.4260    29.0700    54.4790 o          1 GCD      -0.800300
     13 H1          20.1140    28.8800    50.2430 h2         1 GCD       0.020700
     14 H2          17.5040    27.3020    50.3220 h1         1 GCD       0.069700
     15 H3          18.0730    30.1380    49.4080 h1         1 GCD       0.017700
     16 HO1         21.0370    26.9080    50.6760 ho         1 GCD       0.411000
     17 HO2         17.5880    27.8710    48.0260 ho         1 GCD       0.403000
     18 HO3         15.8520    30.2130    49.4310 ho         1 GCD       0.398000
     19 H4          17.0130    30.6680    51.8210 ha         1 GCD       0.156000
@<TRIPOS>BOND
     1     1     2 1   
     2     1     7 1   
     3     1    10 1   
     4     1    13 1   
     5     2     3 1   
     6     2     8 1   
     7     2    14 1   
     8     3     4 1   
     9     3     9 1   
    10     3    15 1   
    11     4     5 2   
    12     4    19 1   
    13     5     6 1   
    14     5    10 1   
    15     6    11 1   
    16     6    12 1   
    17     7    16 1   
    18     8    17 1   
    19     9    18 1   
@<TRIPOS>SUBSTRUCTURE
     1 GCD         1 TEMP              0 ****  ****    0 ROOT
