@<TRIPOS>MOLECULE
GCE
   51    53     1     0     0
SMALL
No Charge or Current Charge


@<TRIPOS>ATOM
      1 C10          2.5160     0.3870    -0.0090 ca         1 GCE      -0.120900
      2 C13          5.2570     0.0810     0.6670 ca         1 GCE      -0.112000
      3 C14          4.4340     0.9310     1.4180 ca         1 GCE       0.154000
      4 C18         -1.6750     0.4000     1.8650 c3         1 GCE      -0.085400
      5 C26         -4.7650     2.5150    -0.4870 ca         1 GCE      -0.113500
      6 C19         -0.5750    -0.4150     2.6010 c3         1 GCE      -0.081400
      7 C20         -0.9590    -0.7480     4.0570 c3         1 GCE       0.150800
      8 C22         -2.5350     1.4920    -0.3860 ca         1 GCE      -0.085300
      9 C23         -2.3570     1.8380    -1.7480 ca         1 GCE      -0.079500
     10 C24         -3.3640     2.5030    -2.4660 ca         1 GCE      -0.113500
     11 C29          0.4980    -3.6070    -1.5180 c3         1 GCE       0.138900
     12 C01         -2.5850    -3.4390    -2.2250 c3         1 GCE       0.065300
     13 C03         -1.9470    -1.3990    -0.8630 c          1 GCE       0.670100
     14 C06         -1.3970     0.7650     0.3720 c5         1 GCE       0.331700
     15 C08          1.0550     0.5140    -0.3220 ce         1 GCE       0.405800
     16 C11          3.3560    -0.4790    -0.7520 ca         1 GCE       0.191000
     17 C12          4.7140    -0.6240    -0.4200 ca         1 GCE      -0.135000
     18 C15          3.0770     1.0830     1.0910 ca         1 GCE      -0.106000
     19 C25         -4.5710     2.8410    -1.8370 ca         1 GCE      -0.096000
     20 C27         -3.7580     1.8490     0.2340 ca         1 GCE      -0.079500
     21 F16          4.9490     1.6060     2.4690 f          1 GCE      -0.171000
     22 F17          2.8860    -1.1580    -1.8220 f          1 GCE      -0.160000
     23 N02         -1.5790    -2.4760    -1.7320 n          1 GCE      -0.232300
     24 N05         -0.9860    -0.4200    -0.4370 n          1 GCE      -0.188800
     25 N09          0.3510    -0.4760    -0.7370 n2         1 GCE      -0.374300
     26 N21          0.0940    -1.5290     4.7280 n8         1 GCE      -0.994200
     27 O04         -3.1080    -1.3400    -0.4700 o          1 GCE      -0.595100
     28 O28         -0.2770    -2.6660    -2.2830 os         1 GCE      -0.247100
     29 S07          0.1140     1.8710     0.3410 ss         1 GCE      -0.321200
     30 H1           6.3060    -0.0300     0.9280 ha         1 GCE       0.139000
     31 H2          -2.6040    -0.1790     1.9230 hc         1 GCE       0.068200
     32 H3          -1.8540     1.3230     2.4300 hc         1 GCE       0.068200
     33 H4          -5.6990     2.7790     0.0050 ha         1 GCE       0.115000
     34 H5          -0.3900    -1.3520     2.0620 hc         1 GCE       0.055700
     35 H6           0.3660     0.1470     2.6050 hc         1 GCE       0.055700
     36 H7          -1.1230     0.1810     4.6200 h1         1 GCE       0.027200
     37 H8          -1.8900    -1.3320     4.0690 h1         1 GCE       0.027200
     38 H9          -1.4280     1.5890    -2.2570 ha         1 GCE       0.120500
     39 H10         -3.2080     2.7570    -3.5130 ha         1 GCE       0.115000
     40 H11          1.5000    -3.7150    -1.9510 h1         1 GCE       0.043367
     41 H12          0.6090    -3.2700    -0.4800 h1         1 GCE       0.043367
     42 H13          0.0190    -4.5940    -1.5130 h1         1 GCE       0.043367
     43 H14         -3.4050    -2.8990    -2.7160 h1         1 GCE       0.051367
     44 H15         -2.1310    -4.1280    -2.9490 h1         1 GCE       0.051367
     45 H16         -2.9860    -4.0170    -1.3830 h1         1 GCE       0.051367
     46 H18          5.3450    -1.2850    -1.0100 ha         1 GCE       0.139000
     47 H19          2.4710     1.7410     1.7090 ha         1 GCE       0.148000
     48 H20         -5.3510     3.3560    -2.3930 ha         1 GCE       0.114000
     49 H21         -3.9470     1.6170     1.2780 ha         1 GCE       0.120500
     50 H23          0.9420    -0.9550     4.8010 hn         1 GCE       0.391500
     51 H24         -0.1770    -1.6840     5.7070 hn         1 GCE       0.391500
@<TRIPOS>BOND
     1     1    15 1   
     2     1    16 ar  
     3     1    18 ar  
     4     2     3 ar  
     5     2    17 ar  
     6     2    30 1   
     7     3    18 ar  
     8     3    21 1   
     9     4     6 1   
    10     4    14 1   
    11     4    31 1   
    12     4    32 1   
    13     5    19 ar  
    14     5    20 ar  
    15     5    33 1   
    16     6     7 1   
    17     6    34 1   
    18     6    35 1   
    19     7    26 1   
    20     7    36 1   
    21     7    37 1   
    22     8     9 ar  
    23     8    14 1   
    24     8    20 ar  
    25     9    10 ar  
    26     9    38 1   
    27    10    19 ar  
    28    10    39 1   
    29    11    28 1   
    30    11    40 1   
    31    11    41 1   
    32    11    42 1   
    33    12    23 1   
    34    12    43 1   
    35    12    44 1   
    36    12    45 1   
    37    13    23 1   
    38    13    24 1   
    39    13    27 2   
    40    14    24 1   
    41    14    29 1   
    42    15    25 2   
    43    15    29 1   
    44    16    17 ar  
    45    16    22 1   
    46    17    46 1   
    47    18    47 1   
    48    19    48 1   
    49    20    49 1   
    50    23    28 1   
    51    24    25 1   
    52    26    50 1   
    53    26    51 1   
@<TRIPOS>SUBSTRUCTURE
     1 GCE         1 TEMP              0 ****  ****    0 ROOT
