@<TRIPOS>MOLECULE
GCE
   51    53     1     0     0
SMALL
abcg2


@<TRIPOS>ATOM
      1 C10          2.5470     0.2340     0.1000 ca         1 GCE      -0.120900
      2 C13          5.3450     0.3090     0.1850 ca         1 GCE      -0.112000
      3 C14          4.5840     0.8390     1.2090 ca         1 GCE       0.154000
      4 C18         -1.8270     0.3970     1.9530 c3         1 GCE      -0.085400
      5 C26         -4.4060     2.7180    -0.5820 ca         1 GCE      -0.113500
      6 C19         -0.8860    -0.4690     2.7780 c3         1 GCE      -0.081400
      7 C20         -1.4420    -0.6960     4.1770 c3         1 GCE       0.150800
      8 C22         -2.4070     1.3870    -0.3410 ca         1 GCE      -0.085300
      9 C23         -2.2170     1.4670    -1.7200 ca         1 GCE      -0.079500
     10 C24         -3.1160     2.1510    -2.5200 ca         1 GCE      -0.113500
     11 C29          0.5810    -3.2250    -2.1880 c3         1 GCE       0.138900
     12 C01         -2.4620    -3.5450    -1.7140 c3         1 GCE       0.065300
     13 C03         -1.8550    -1.5540    -0.5000 c          1 GCE       0.670100
     14 C06         -1.3890     0.6460     0.5080 c5         1 GCE       0.331700
     15 C08          1.0830     0.2050     0.0730 ce         1 GCE       0.405800
     16 C11          3.3180    -0.2840    -0.9340 ca         1 GCE       0.191000
     17 C12          4.6980    -0.2560    -0.9020 ca         1 GCE      -0.135000
     18 C15          3.2050     0.8160     1.1830 ca         1 GCE      -0.106000
     19 C25         -4.2180     2.7820    -1.9530 ca         1 GCE      -0.096000
     20 C27         -3.5080     2.0220     0.2200 ca         1 GCE      -0.079500
     21 F16          5.2010     1.3920     2.2620 f          1 GCE      -0.171000
     22 F17          2.7140    -0.8020    -2.0060 f          1 GCE      -0.160000
     23 N02         -1.4410    -2.6160    -1.2650 n          1 GCE      -0.232300
     24 N05         -0.9330    -0.5820    -0.1800 n          1 GCE      -0.188800
     25 N09          0.3990    -0.8140    -0.2470 n2         1 GCE      -0.374300
     26 N21         -0.5340    -1.5140     4.9670 n8         1 GCE      -0.994200
     27 O04         -2.9990    -1.4780    -0.0910 o          1 GCE      -0.595100
     28 O28         -0.5170    -2.3290    -2.2520 os         1 GCE      -0.247100
     29 S07          0.1720     1.6410     0.5100 ss         1 GCE      -0.321200
     30 H1           6.4260     0.3400     0.2270 ha         1 GCE       0.139000
     31 H2          -2.8200    -0.0550     1.9410 hc         1 GCE       0.068200
     32 H3          -1.9290     1.3690     2.4430 hc         1 GCE       0.068200
     33 H4          -5.2580     3.2050    -0.1250 ha         1 GCE       0.115000
     34 H5          -0.7260    -1.4400     2.3030 hc         1 GCE       0.055700
     35 H6           0.0930     0.0130     2.8610 hc         1 GCE       0.055700
     36 H7          -1.6660     0.2790     4.6340 h1         1 GCE       0.027200
     37 H8          -2.3970    -1.2220     4.0990 h1         1 GCE       0.027200
     38 H9          -1.3600     0.9880    -2.1790 ha         1 GCE       0.120500
     39 H10         -2.9550     2.1960    -3.5890 ha         1 GCE       0.115000
     40 H11          1.2240    -2.9690    -3.0270 h1         1 GCE       0.043367
     41 H12          1.1360    -3.1170    -1.2570 h1         1 GCE       0.043367
     42 H13          0.2590    -4.2630    -2.3040 h1         1 GCE       0.043367
     43 H14         -3.1600    -3.0930    -2.4220 h1         1 GCE       0.051367
     44 H15         -1.9720    -4.3910    -2.1900 h1         1 GCE       0.051367
     45 H16         -3.0170    -3.9250    -0.8610 h1         1 GCE       0.051367
     46 H18          5.2650    -0.6660    -1.7270 ha         1 GCE       0.139000
     47 H19          2.6410     1.2340     2.0080 ha         1 GCE       0.148000
     48 H20         -4.9200     3.3200    -2.5760 ha         1 GCE       0.114000
     49 H21         -3.6870     1.9880     1.2860 ha         1 GCE       0.120500
     50 H23          0.3100    -0.9880     5.1560 hn         1 GCE       0.391500
     51 H24         -0.9480    -1.6960     5.8720 hn         1 GCE       0.391500
@<TRIPOS>BOND
     1     1    15 1   
     2     1    16 ar  
     3     1    18 ar  
     4     2     3 ar  
     5     2    17 ar  
     6     2    30 1   
     7     3    18 ar  
     8     3    21 1   
     9     4     6 1   
    10     4    14 1   
    11     4    31 1   
    12     4    32 1   
    13     5    19 ar  
    14     5    20 ar  
    15     5    33 1   
    16     6     7 1   
    17     6    34 1   
    18     6    35 1   
    19     7    26 1   
    20     7    36 1   
    21     7    37 1   
    22     8     9 ar  
    23     8    14 1   
    24     8    20 ar  
    25     9    10 ar  
    26     9    38 1   
    27    10    19 ar  
    28    10    39 1   
    29    11    28 1   
    30    11    40 1   
    31    11    41 1   
    32    11    42 1   
    33    12    23 1   
    34    12    43 1   
    35    12    44 1   
    36    12    45 1   
    37    13    23 1   
    38    13    24 1   
    39    13    27 2   
    40    14    24 1   
    41    14    29 1   
    42    15    25 2   
    43    15    29 1   
    44    16    17 ar  
    45    16    22 1   
    46    17    46 1   
    47    18    47 1   
    48    19    48 1   
    49    20    49 1   
    50    23    28 1   
    51    24    25 1   
    52    26    50 1   
    53    26    51 1   
@<TRIPOS>SUBSTRUCTURE
     1 GCE         1 TEMP              0 ****  ****    0 ROOT
