@<TRIPOS>MOLECULE
GCF
   61    64     1     0     0
SMALL
No Charge or Current Charge


@<TRIPOS>ATOM
      1 O61         -8.1960    -2.2320    -1.4320 o          1 GCF      -0.738000
      2 C51         -7.3200    -1.4210    -1.6880 c          1 GCF       0.717000
      3 O58         -7.5200    -0.3750    -2.2870 o          1 GCF      -0.738000
      4 C50         -5.8990    -1.7000    -1.1710 c3         1 GCF      -0.204400
      5 C49         -5.7280    -1.1100     0.2480 c3         1 GCF      -0.024100
      6 C42         -4.3360    -1.3630     0.8150 ca         1 GCF      -0.044300
      7 C41         -3.2840    -0.4680     0.5410 ca         1 GCF      -0.101000
      8 C43         -4.0890    -2.4970     1.6100 ca         1 GCF      -0.104000
      9 C44         -2.8050    -2.7310     2.1260 ca         1 GCF      -0.120000
     10 C45         -1.7610    -1.8340     1.8490 ca         1 GCF      -0.118000
     11 C34         -1.9780    -0.6830     1.0510 cp         1 GCF      -0.062000
     12 C20         -0.8640     0.2720     0.7540 cp         1 GCF      -0.014000
     13 C19         -1.0980     1.6650     0.6700 ca         1 GCF      -0.051000
     14 C18         -0.0530     2.5660     0.3790 ca         1 GCF      -0.206300
     15 C35         -0.3150     4.0720     0.2620 c3         1 GCF       0.355300
     16 F48          0.6590     4.8000     0.8550 f          1 GCF      -0.118333
     17 F47         -0.3660     4.4610    -1.0310 f          1 GCF      -0.118333
     18 F46         -1.4810     4.4510     0.8340 f          1 GCF      -0.118333
     19 C17          1.2470     2.0660     0.1670 ca         1 GCF      -0.078000
     20 C21          0.4540    -0.1950     0.5410 ca         1 GCF      -0.061000
     21 C16          1.5250     0.6820     0.2650 ca         1 GCF      -0.075300
     22 C4           2.9310     0.0720     0.0050 c6         1 GCF       0.200800
     23 C14          4.1340     1.1110     0.0070 c3         1 GCF      -0.044700
     24 C36          4.3400     1.8950     1.3340 c3         1 GCF      -0.087600
     25 C15          5.4960     0.5020    -0.4250 c3         1 GCF      -0.087600
     26 C3           3.2460    -1.0880     1.0920 ce         1 GCF      -0.246900
     27 C8           3.0910    -0.8450     2.5230 cg         1 GCF       0.316700
     28 N9           2.9470    -0.6950     3.6710 n1         1 GCF      -0.510000
     29 C2           3.6430    -2.3430     0.7110 c2         1 GCF       0.397100
     30 N7           3.9470    -3.4010     1.5350 nv         1 GCF      -0.964000
     31 C5           2.8950    -0.6100    -1.3500 cc         1 GCF      -0.237300
     32 C10          2.5010    -0.1580    -2.5790 cd         1 GCF      -0.082300
     33 C13          1.9330     1.1710    -3.0120 c3         1 GCF      -0.037800
     34 N11          2.7340    -1.2410    -3.4530 na         1 GCF      -0.004200
     35 N12          3.2570    -2.3650    -2.8020 nd         1 GCF      -0.514800
     36 C6           3.3100    -1.9240    -1.5680 cc         1 GCF       0.470300
     37 O1           3.7600    -2.7400    -0.5780 os         1 GCF      -0.334400
     38 H2          -5.7320    -2.7790    -1.0690 hc         1 GCF       0.020200
     39 H3          -5.1540    -1.1950    -1.7980 hc         1 GCF       0.020200
     40 H4          -5.9280    -0.0310     0.2180 hc         1 GCF       0.053200
     41 H5          -6.4880    -1.5400     0.9120 hc         1 GCF       0.053200
     42 H6          -3.4800     0.3960    -0.0890 ha         1 GCF       0.115000
     43 H7          -4.8920    -3.1990     1.8260 ha         1 GCF       0.117000
     44 H8          -2.6190    -3.6080     2.7420 ha         1 GCF       0.100000
     45 H9          -0.7770    -2.0270     2.2690 ha         1 GCF       0.103000
     46 H10         -2.1050     2.0390     0.8380 ha         1 GCF       0.140000
     47 H11          2.0310     2.7710    -0.0890 ha         1 GCF       0.119000
     48 H12          0.6380    -1.2650     0.5690 ha         1 GCF       0.127000
     49 H13          3.9160     1.8650    -0.7570 hc         1 GCF       0.041700
     50 H14          4.8480     1.2770     2.0830 hc         1 GCF       0.035367
     51 H15          4.9660     2.7780     1.1600 hc         1 GCF       0.035367
     52 H16          3.3930     2.2370     1.7650 hc         1 GCF       0.035367
     53 H17          5.4490     0.0910    -1.4400 hc         1 GCF       0.035367
     54 H18          6.2790     1.2690    -0.4230 hc         1 GCF       0.035367
     55 H19          5.8070    -0.2980     0.2570 hc         1 GCF       0.035367
     56 H20          3.5430    -3.3760     2.4670 hn         1 GCF       0.501000
     57 H21          3.9470    -4.3150     1.0910 hn         1 GCF       0.501000
     58 H22          2.5550     2.0040    -2.6650 hc         1 GCF       0.060033
     59 H23          1.8690     1.2430    -4.1040 hc         1 GCF       0.060033
     60 H24          0.9230     1.3130    -2.6120 hc         1 GCF       0.060033
     61 H25          2.5560    -1.2460    -4.4570 hn         1 GCF       0.379000
@<TRIPOS>BOND
     1     1     2 1   
     2     2     3 1   
     3     2     4 1   
     4     4     5 1   
     5     4    38 1   
     6     4    39 1   
     7     5     6 1   
     8     5    40 1   
     9     5    41 1   
    10     6     7 ar  
    11     6     8 ar  
    12     7    11 ar  
    13     7    42 1   
    14     8     9 ar  
    15     8    43 1   
    16     9    10 ar  
    17     9    44 1   
    18    10    11 ar  
    19    10    45 1   
    20    11    12 1   
    21    12    13 ar  
    22    12    20 ar  
    23    13    14 ar  
    24    13    46 1   
    25    14    15 1   
    26    14    19 ar  
    27    15    16 1   
    28    15    17 1   
    29    15    18 1   
    30    19    21 ar  
    31    19    47 1   
    32    20    21 ar  
    33    20    48 1   
    34    21    22 1   
    35    22    23 1   
    36    22    26 1   
    37    22    31 1   
    38    23    24 1   
    39    23    25 1   
    40    23    49 1   
    41    24    50 1   
    42    24    51 1   
    43    24    52 1   
    44    25    53 1   
    45    25    54 1   
    46    25    55 1   
    47    26    27 1   
    48    26    29 2   
    49    27    28 3   
    50    29    30 1   
    51    29    37 1   
    52    30    56 1   
    53    30    57 1   
    54    31    32 2   
    55    31    36 1   
    56    32    33 1   
    57    32    34 1   
    58    33    58 1   
    59    33    59 1   
    60    33    60 1   
    61    34    35 1   
    62    34    61 1   
    63    35    36 2   
    64    36    37 1   
@<TRIPOS>SUBSTRUCTURE
     1 GCF         1 TEMP              0 ****  ****    0 ROOT
