@<TRIPOS>MOLECULE
GCF
   61    64     1     0     0
SMALL
abcg2


@<TRIPOS>ATOM
      1 O61         -7.2070    -2.5680    -2.8000 o          1 GCF      -0.738000
      2 C51         -7.0780    -1.8010    -1.8230 c          1 GCF       0.717000
      3 O58         -7.9040    -0.9510    -1.4350 o          1 GCF      -0.738000
      4 C50         -5.7600    -1.9330    -1.0380 c3         1 GCF      -0.204400
      5 C49         -5.6160    -1.0040     0.1650 c3         1 GCF      -0.024100
      6 C42         -4.2910    -1.1890     0.8510 ca         1 GCF      -0.044300
      7 C41         -3.2170    -0.3560     0.5550 ca         1 GCF      -0.101000
      8 C43         -4.0910    -2.2310     1.7540 ca         1 GCF      -0.104000
      9 C44         -2.8490    -2.4330     2.3390 ca         1 GCF      -0.120000
     10 C45         -1.7860    -1.5960     2.0330 ca         1 GCF      -0.118000
     11 C34         -1.9620    -0.5440     1.1350 cp         1 GCF      -0.062000
     12 C20         -0.8420     0.3610     0.8070 cp         1 GCF      -0.014000
     13 C19         -1.0500     1.7370     0.7080 ca         1 GCF      -0.051000
     14 C18          0.0130     2.5680     0.4080 ca         1 GCF      -0.206300
     15 C35         -0.1730     4.0470     0.2790 c3         1 GCF       0.355300
     16 F48          0.6540     4.7260     1.0880 f          1 GCF      -0.118333
     17 F47          0.0890     4.4680    -0.9680 f          1 GCF      -0.118333
     18 F46         -1.4150     4.4420     0.5720 f          1 GCF      -0.118333
     19 C17          1.2900     2.0490     0.2040 ca         1 GCF      -0.078000
     20 C21          0.4350    -0.1420     0.5930 ca         1 GCF      -0.061000
     21 C16          1.5170     0.6840     0.2950 ca         1 GCF      -0.075300
     22 C4           2.8770     0.0440    -0.0090 c6         1 GCF       0.200800
     23 C14          4.0540     1.0640     0.0450 c3         1 GCF      -0.044700
     24 C36          4.2800     1.6580     1.4340 c3         1 GCF      -0.087600
     25 C15          5.3620     0.4640    -0.4590 c3         1 GCF      -0.087600
     26 C3           3.1190    -1.1250     0.9440 ce         1 GCF      -0.246900
     27 C8           2.8810    -0.9420     2.3170 cg         1 GCF       0.316700
     28 N9           2.6650    -0.8210     3.4490 n1         1 GCF      -0.510000
     29 C2           3.5320    -2.3770     0.5630 c2         1 GCF       0.397100
     30 N7           3.8980    -3.3650     1.3900 nv         1 GCF      -0.964000
     31 C5           2.7910    -0.5680    -1.3760 cc         1 GCF      -0.237300
     32 C10          2.4120    -0.0930    -2.6200 cd         1 GCF      -0.082300
     33 C13          1.8960     1.2250    -3.0720 c3         1 GCF      -0.037800
     34 N11          2.6030    -1.1180    -3.4700 na         1 GCF      -0.004200
     35 N12          3.0740    -2.2280    -2.8950 nd         1 GCF      -0.514800
     36 C6           3.1810    -1.8760    -1.6410 cc         1 GCF       0.470300
     37 O1           3.6450    -2.7530    -0.7200 os         1 GCF      -0.334400
     38 H2          -5.6530    -2.9740    -0.7130 hc         1 GCF       0.020200
     39 H3          -4.9280    -1.7660    -1.7310 hc         1 GCF       0.020200
     40 H4          -5.7210     0.0330    -0.1580 hc         1 GCF       0.053200
     41 H5          -6.4270    -1.1920     0.8730 hc         1 GCF       0.053200
     42 H6          -3.3580     0.4440    -0.1630 ha         1 GCF       0.115000
     43 H7          -4.9150    -2.8910     2.0030 ha         1 GCF       0.117000
     44 H8          -2.7110    -3.2400     3.0470 ha         1 GCF       0.100000
     45 H9          -0.8270    -1.7450     2.5140 ha         1 GCF       0.103000
     46 H10         -2.0380     2.1390     0.8900 ha         1 GCF       0.140000
     47 H11          2.1000     2.7250    -0.0310 ha         1 GCF       0.119000
     48 H12          0.5870    -1.2140     0.6360 ha         1 GCF       0.127000
     49 H13          3.7990     1.8770    -0.6440 hc         1 GCF       0.041700
     50 H14          4.7520     0.9330     2.0990 hc         1 GCF       0.035367
     51 H15          4.9540     2.5130     1.3630 hc         1 GCF       0.035367
     52 H16          3.3660     2.0020     1.9160 hc         1 GCF       0.035367
     53 H17          5.2950     0.1290    -1.4930 hc         1 GCF       0.035367
     54 H18          6.1520     1.2140    -0.4090 hc         1 GCF       0.035367
     55 H19          5.6780    -0.3810     0.1560 hc         1 GCF       0.035367
     56 H20          3.8010    -3.2450     2.3840 hn         1 GCF       0.501000
     57 H21          3.8670    -4.3170     1.0600 hn         1 GCF       0.501000
     58 H22          2.6360     2.0110    -2.9240 hc         1 GCF       0.060033
     59 H23          1.6420     1.2050    -4.1310 hc         1 GCF       0.060033
     60 H24          1.0010     1.5050    -2.5180 hc         1 GCF       0.060033
     61 H25          2.4220    -1.1170    -4.4620 hn         1 GCF       0.379000
@<TRIPOS>BOND
     1     1     2 1   
     2     2     3 1   
     3     2     4 1   
     4     4     5 1   
     5     4    38 1   
     6     4    39 1   
     7     5     6 1   
     8     5    40 1   
     9     5    41 1   
    10     6     7 ar  
    11     6     8 ar  
    12     7    11 ar  
    13     7    42 1   
    14     8     9 ar  
    15     8    43 1   
    16     9    10 ar  
    17     9    44 1   
    18    10    11 ar  
    19    10    45 1   
    20    11    12 1   
    21    12    13 ar  
    22    12    20 ar  
    23    13    14 ar  
    24    13    46 1   
    25    14    15 1   
    26    14    19 ar  
    27    15    16 1   
    28    15    17 1   
    29    15    18 1   
    30    19    21 ar  
    31    19    47 1   
    32    20    21 ar  
    33    20    48 1   
    34    21    22 1   
    35    22    23 1   
    36    22    26 1   
    37    22    31 1   
    38    23    24 1   
    39    23    25 1   
    40    23    49 1   
    41    24    50 1   
    42    24    51 1   
    43    24    52 1   
    44    25    53 1   
    45    25    54 1   
    46    25    55 1   
    47    26    27 1   
    48    26    29 2   
    49    27    28 3   
    50    29    30 1   
    51    29    37 1   
    52    30    56 1   
    53    30    57 1   
    54    31    32 2   
    55    31    36 1   
    56    32    33 1   
    57    32    34 1   
    58    33    58 1   
    59    33    59 1   
    60    33    60 1   
    61    34    35 1   
    62    34    61 1   
    63    35    36 2   
    64    36    37 1   
@<TRIPOS>SUBSTRUCTURE
     1 GCF         1 TEMP              0 ****  ****    0 ROOT
