@<TRIPOS>MOLECULE
GCH
   75    78     1     0     0
SMALL
abcg2


@<TRIPOS>ATOM
      1 C            0.6230    -1.5860    -6.5940 c6         1 GCH       0.173300
      2 O            0.4290    -2.9710    -6.8150 oh         1 GCH      -0.659000
      3 C1          -0.6420    -1.0320    -5.9670 c6         1 GCH      -0.076400
      4 C2          -0.5430     0.4740    -5.6900 c6         1 GCH      -0.040700
      5 C3           0.6910     0.8570    -4.8400 c6         1 GCH      -0.033000
      6 C4           1.9340     0.2010    -5.4680 c6         1 GCH      -0.064400
      7 C5           1.8160    -1.2980    -5.6960 c6         1 GCH      -0.112400
      8 C6           0.9170     2.3730    -4.9180 c3         1 GCH      -0.086100
      9 C7          -1.8310     1.0380    -5.0870 c6         1 GCH      -0.105400
     10 C8          -2.0720     0.6620    -3.6270 c6         1 GCH       0.178300
     11 O1          -2.4290    -0.7000    -3.4700 oh         1 GCH      -0.652000
     12 C9          -0.8400     0.9540    -2.7710 c6         1 GCH      -0.032700
     13 C10          0.4640     0.3980    -3.3760 c6         1 GCH      -0.041700
     14 C11          1.6410     0.7390    -2.4580 c6         1 GCH      -0.111400
     15 C12          1.4820     0.2640    -1.0110 c6         1 GCH       0.184300
     16 C13          0.1760     0.7980    -0.4060 c5         1 GCH      -0.031000
     17 C14         -0.9860     0.4260    -1.3490 c5         1 GCH      -0.062700
     18 C15         -2.2260     0.8090    -0.5510 c5         1 GCH      -0.069400
     19 C16         -1.8430     0.4670     0.9030 c5         1 GCH      -0.078400
     20 C17         -0.3230     0.1490     0.9130 c5         1 GCH      -0.048700
     21 C18          0.3490     0.5450     2.2360 c3         1 GCH      -0.049700
     22 C19          1.8550     0.2890     2.2340 c3         1 GCH      -0.086100
     23 C20         -0.3220    -0.2040     3.3960 c3         1 GCH      -0.067400
     24 C21          0.1390     0.2460     4.7770 c3         1 GCH      -0.159400
     25 C22         -0.6410    -0.4050     5.9020 c          1 GCH       0.582100
     26 N            0.0780    -0.7080     6.9880 ns         1 GCH      -0.462900
     27 CA          -0.4720    -1.2630     8.1960 c3         1 GCH      -0.057000
     28 O2          -1.8480    -0.6170     5.8270 o          1 GCH      -0.662100
     29 C23          0.3010     2.3130    -0.2080 c3         1 GCH      -0.083100
     30 O3           1.4880    -1.1480    -0.9300 oh         1 GCH      -0.651000
     31 C24          0.6070    -1.3870     9.2930 c          1 GCH       0.713000
     32 O4           0.2060    -1.8340    10.3810 o          1 GCH      -0.731500
     33 O5           1.7650    -1.0380     8.9950 o          1 GCH      -0.731500
     34 H12          0.7950    -1.0700    -7.5530 h1         1 GCH       0.019700
     35 H1           1.2470    -3.3350    -7.1660 ho         1 GCH       0.437000
     36 H10         -0.8520    -1.5870    -5.0510 hc         1 GCH       0.060700
     37 H11         -1.4890    -1.2060    -6.6390 hc         1 GCH       0.060700
     38 H9          -0.4100     0.9570    -6.6680 hc         1 GCH       0.035700
     39 H4           2.8260     0.4260    -4.8780 hc         1 GCH       0.036700
     40 H5           2.1060     0.6780    -6.4410 hc         1 GCH       0.036700
     41 H2           1.7000    -1.8380    -4.7500 hc         1 GCH       0.046700
     42 H3           2.7360    -1.6710    -6.1580 hc         1 GCH       0.046700
     43 H6           0.9480     2.6940    -5.9610 hc         1 GCH       0.031367
     44 H7           0.1430     2.9580    -4.4220 hc         1 GCH       0.031367
     45 H8           1.8710     2.6530    -4.4680 hc         1 GCH       0.031367
     46 H17         -2.6930     0.7300    -5.6910 hc         1 GCH       0.040200
     47 H18         -1.8130     2.1300    -5.1500 hc         1 GCH       0.040200
     48 H16         -2.8930     1.2940    -3.2550 h1         1 GCH       0.027700
     49 H13         -3.1290    -0.8980    -4.1000 ho         1 GCH       0.435000
     50 H15         -0.7680     2.0470    -2.7310 hc         1 GCH       0.043700
     51 H14          0.3670    -0.6940    -3.3800 hc         1 GCH       0.071700
     52 H41          2.5700     0.3130    -2.8480 hc         1 GCH       0.036700
     53 H42          1.8040     1.8190    -2.4470 hc         1 GCH       0.036700
     54 H40          2.3360     0.6710    -0.4540 h1         1 GCH       0.031700
     55 H35         -0.9790    -0.6680    -1.4150 hc         1 GCH       0.080700
     56 H33         -3.1160     0.2740    -0.8850 hc         1 GCH       0.036200
     57 H34         -2.4440     1.8760    -0.6590 hc         1 GCH       0.036200
     58 H31         -2.4190    -0.3830     1.2710 hc         1 GCH       0.047200
     59 H32         -2.0670     1.2990     1.5770 hc         1 GCH       0.047200
     60 H30         -0.2080    -0.9350     0.8070 hc         1 GCH       0.068700
     61 H29          0.1820     1.6190     2.3940 hc         1 GCH       0.037700
     62 H19          2.0720    -0.7520     1.9870 hc         1 GCH       0.030033
     63 H20          2.3750     0.9150     1.5110 hc         1 GCH       0.030033
     64 H21          2.3040     0.5020     3.2040 hc         1 GCH       0.030033
     65 H27         -1.4030    -0.0690     3.3420 hc         1 GCH       0.052700
     66 H28         -0.1410    -1.2780     3.2790 hc         1 GCH       0.052700
     67 H25          1.2060     0.0640     4.9150 hc         1 GCH       0.047200
     68 H26          0.0010     1.3300     4.8680 hc         1 GCH       0.047200
     69 H24          1.0690    -0.5160     7.0190 hn         1 GCH       0.336500
     70 H22         -1.2910    -0.6420     8.5720 h1         1 GCH       0.034700
     71 H23         -0.9000    -2.2550     8.0120 h1         1 GCH       0.034700
     72 H36          0.4190     2.8610    -1.1420 hc         1 GCH       0.031700
     73 H37         -0.5740     2.7290     0.2930 hc         1 GCH       0.031700
     74 H38          1.1660     2.5580     0.4130 hc         1 GCH       0.031700
     75 H39          2.2660    -1.4680    -1.3970 ho         1 GCH       0.434000
@<TRIPOS>BOND
     1     1     2 1   
     2     1     3 1   
     3     1     7 1   
     4     1    34 1   
     5     2    35 1   
     6     3     4 1   
     7     3    36 1   
     8     3    37 1   
     9     4     5 1   
    10     4     9 1   
    11     4    38 1   
    12     5     6 1   
    13     5     8 1   
    14     5    13 1   
    15     6     7 1   
    16     6    39 1   
    17     6    40 1   
    18     7    41 1   
    19     7    42 1   
    20     8    43 1   
    21     8    44 1   
    22     8    45 1   
    23     9    10 1   
    24     9    46 1   
    25     9    47 1   
    26    10    11 1   
    27    10    12 1   
    28    10    48 1   
    29    11    49 1   
    30    12    13 1   
    31    12    17 1   
    32    12    50 1   
    33    13    14 1   
    34    13    51 1   
    35    14    15 1   
    36    14    52 1   
    37    14    53 1   
    38    15    16 1   
    39    15    30 1   
    40    15    54 1   
    41    16    17 1   
    42    16    20 1   
    43    16    29 1   
    44    17    18 1   
    45    17    55 1   
    46    18    19 1   
    47    18    56 1   
    48    18    57 1   
    49    19    20 1   
    50    19    58 1   
    51    19    59 1   
    52    20    21 1   
    53    20    60 1   
    54    21    22 1   
    55    21    23 1   
    56    21    61 1   
    57    22    62 1   
    58    22    63 1   
    59    22    64 1   
    60    23    24 1   
    61    23    65 1   
    62    23    66 1   
    63    24    25 1   
    64    24    67 1   
    65    24    68 1   
    66    25    26 1   
    67    25    28 2   
    68    26    27 1   
    69    26    69 1   
    70    27    31 1   
    71    27    70 1   
    72    27    71 1   
    73    29    72 1   
    74    29    73 1   
    75    29    74 1   
    76    30    75 1   
    77    31    32 1   
    78    31    33 1   
@<TRIPOS>SUBSTRUCTURE
     1 GCH         1 TEMP              0 ****  ****    0 ROOT
