@<TRIPOS>MOLECULE
GCH
   75    78     1     0     0
SMALL
No Charge or Current Charge


@<TRIPOS>ATOM
      1 C            0.7700    -1.8240    -6.5150 c6         1 GCH       0.173300
      2 O            0.7930    -3.2510    -6.5990 oh         1 GCH      -0.659000
      3 C1          -0.5550    -1.3510    -5.8770 c6         1 GCH      -0.076400
      4 C2          -0.6100     0.2060    -5.7160 c6         1 GCH      -0.040700
      5 C3           0.6200     0.7830    -4.9130 c6         1 GCH      -0.033000
      6 C4           1.9340     0.2170    -5.5650 c6         1 GCH      -0.064400
      7 C5           1.9700    -1.3250    -5.6810 c6         1 GCH      -0.112400
      8 C6           0.6870     2.3430    -5.1030 c3         1 GCH      -0.086100
      9 C7          -1.9700     0.6810    -5.1110 c6         1 GCH      -0.105400
     10 C8          -2.1330     0.4010    -3.5900 c6         1 GCH       0.178300
     11 O1          -2.4310    -0.9810    -3.3570 oh         1 GCH      -0.652000
     12 C9          -0.8920     0.8950    -2.7710 c6         1 GCH      -0.032700
     13 C10          0.4720     0.3880    -3.3760 c6         1 GCH      -0.041700
     14 C11          1.6850     0.8500    -2.4870 c6         1 GCH      -0.111400
     15 C12          1.5360     0.4880    -0.9780 c6         1 GCH       0.184300
     16 C13          0.1920     1.0560    -0.3800 c5         1 GCH      -0.031000
     17 C14         -0.9880     0.5170    -1.2590 c5         1 GCH      -0.062700
     18 C15         -2.2380     1.0080    -0.4870 c5         1 GCH      -0.069400
     19 C16         -1.8290     0.8180     1.0070 c5         1 GCH      -0.078400
     20 C17         -0.2950     0.4570     1.0080 c5         1 GCH      -0.048700
     21 C18          0.4290     0.8910     2.3360 c3         1 GCH      -0.049700
     22 C19          1.9600     0.6540     2.3210 c3         1 GCH      -0.086100
     23 C20         -0.2210     0.2060     3.6060 c3         1 GCH      -0.067400
     24 C21          0.2720     0.6430     5.0350 c3         1 GCH      -0.159400
     25 C22         -0.6070     0.0450     6.1420 c          1 GCH       0.582100
     26 N           -0.0280    -0.9780     6.8570 ns         1 GCH      -0.462900
     27 CA          -0.6740    -1.7100     7.9720 c3         1 GCH      -0.057000
     28 O2          -1.7280     0.4650     6.3940 o          1 GCH      -0.662100
     29 C23          0.3070     2.6230    -0.3210 c3         1 GCH      -0.083100
     30 O3           1.6450    -0.9350    -0.8270 oh         1 GCH      -0.651000
     31 C24          0.3150    -2.6550     8.7100 c          1 GCH       0.713000
     32 O4           0.1940    -2.7850     9.9200 o          1 GCH      -0.731500
     33 O5           1.2040    -3.1930     8.0620 o          1 GCH      -0.731500
     34 H12          0.8420    -1.3950    -7.5250 h1         1 GCH       0.019700
     35 H1           1.6390    -3.4910    -7.0360 ho         1 GCH       0.437000
     36 H10         -0.6720    -1.8580    -4.9140 hc         1 GCH       0.060700
     37 H11         -1.3950    -1.6840    -6.5020 hc         1 GCH       0.060700
     38 H9          -0.5620     0.6160    -6.7350 hc         1 GCH       0.035700
     39 H4           2.8260     0.5690    -5.0320 hc         1 GCH       0.036700
     40 H5           2.0380     0.6300    -6.5790 hc         1 GCH       0.036700
     41 H2           1.9680    -1.7870    -4.6850 hc         1 GCH       0.046700
     42 H3           2.9090    -1.6310    -6.1620 hc         1 GCH       0.046700
     43 H6           0.7060     2.6080    -6.1670 hc         1 GCH       0.031367
     44 H7          -0.1640     2.8750    -4.6690 hc         1 GCH       0.031367
     45 H8           1.5950     2.7700    -4.6630 hc         1 GCH       0.031367
     46 H17         -2.8030     0.2250    -5.6640 hc         1 GCH       0.040200
     47 H18         -2.0830     1.7600    -5.2790 hc         1 GCH       0.040200
     48 H16         -2.9970     0.9920    -3.2520 h1         1 GCH       0.027700
     49 H13         -3.2530    -1.1770    -3.8530 ho         1 GCH       0.435000
     50 H15         -0.9100     1.9900    -2.8210 hc         1 GCH       0.043700
     51 H14          0.4500    -0.7070    -3.3100 hc         1 GCH       0.071700
     52 H41          2.6140     0.3930    -2.8490 hc         1 GCH       0.036700
     53 H42          1.8400     1.9310    -2.5820 hc         1 GCH       0.036700
     54 H40          2.3840     0.9580    -0.4630 h1         1 GCH       0.031700
     55 H35         -0.9780    -0.5810    -1.2520 hc         1 GCH       0.080700
     56 H33         -3.1310     0.4270    -0.7410 hc         1 GCH       0.036200
     57 H34         -2.4700     2.0560    -0.7090 hc         1 GCH       0.036200
     58 H31         -2.4200     0.0250     1.4800 hc         1 GCH       0.047200
     59 H32         -2.0270     1.7330     1.5770 hc         1 GCH       0.047200
     60 H30         -0.2030    -0.6350     0.9820 hc         1 GCH       0.068700
     61 H29          0.2850     1.9710     2.4630 hc         1 GCH       0.037700
     62 H19          2.1950    -0.3860     2.0670 hc         1 GCH       0.030033
     63 H20          2.4520     1.3170     1.6040 hc         1 GCH       0.030033
     64 H21          2.4120     0.8790     3.2920 hc         1 GCH       0.030033
     65 H27         -1.3020     0.3860     3.5820 hc         1 GCH       0.052700
     66 H28         -0.1000    -0.8810     3.5170 hc         1 GCH       0.052700
     67 H25          1.3080     0.3100     5.1700 hc         1 GCH       0.047200
     68 H26          0.2200     1.7360     5.0960 hc         1 GCH       0.047200
     69 H24          0.9050    -1.2630     6.5780 hn         1 GCH       0.336500
     70 H22         -1.0770    -0.9860     8.6920 h1         1 GCH       0.034700
     71 H23         -1.5000    -2.3130     7.5750 h1         1 GCH       0.034700
     72 H36          0.3830     3.0810    -1.3120 hc         1 GCH       0.031700
     73 H37         -0.5480     3.0950     0.1760 hc         1 GCH       0.031700
     74 H38          1.1980     2.9290     0.2390 hc         1 GCH       0.031700
     75 H39          2.5030    -1.1920    -1.2260 ho         1 GCH       0.434000
@<TRIPOS>BOND
     1     1     2 1   
     2     1     3 1   
     3     1     7 1   
     4     1    34 1   
     5     2    35 1   
     6     3     4 1   
     7     3    36 1   
     8     3    37 1   
     9     4     5 1   
    10     4     9 1   
    11     4    38 1   
    12     5     6 1   
    13     5     8 1   
    14     5    13 1   
    15     6     7 1   
    16     6    39 1   
    17     6    40 1   
    18     7    41 1   
    19     7    42 1   
    20     8    43 1   
    21     8    44 1   
    22     8    45 1   
    23     9    10 1   
    24     9    46 1   
    25     9    47 1   
    26    10    11 1   
    27    10    12 1   
    28    10    48 1   
    29    11    49 1   
    30    12    13 1   
    31    12    17 1   
    32    12    50 1   
    33    13    14 1   
    34    13    51 1   
    35    14    15 1   
    36    14    52 1   
    37    14    53 1   
    38    15    16 1   
    39    15    30 1   
    40    15    54 1   
    41    16    17 1   
    42    16    20 1   
    43    16    29 1   
    44    17    18 1   
    45    17    55 1   
    46    18    19 1   
    47    18    56 1   
    48    18    57 1   
    49    19    20 1   
    50    19    58 1   
    51    19    59 1   
    52    20    21 1   
    53    20    60 1   
    54    21    22 1   
    55    21    23 1   
    56    21    61 1   
    57    22    62 1   
    58    22    63 1   
    59    22    64 1   
    60    23    24 1   
    61    23    65 1   
    62    23    66 1   
    63    24    25 1   
    64    24    67 1   
    65    24    68 1   
    66    25    26 1   
    67    25    28 2   
    68    26    27 1   
    69    26    69 1   
    70    27    31 1   
    71    27    70 1   
    72    27    71 1   
    73    29    72 1   
    74    29    73 1   
    75    29    74 1   
    76    30    75 1   
    77    31    32 1   
    78    31    33 1   
@<TRIPOS>SUBSTRUCTURE
     1 GCH         1 TEMP              0 ****  ****    0 ROOT
