@<TRIPOS>MOLECULE
GCI
   89    93     1     0     0
SMALL
abcg2


@<TRIPOS>ATOM
      1 C10         44.4080     2.6160    13.8430 ca         1 GCI      -0.089000
      2 N12         46.1290     6.7480    15.8720 nh         1 GCI      -0.799300
      3 C13         47.0890     0.6830    13.6870 c3         1 GCI       0.142800
      4 C20         47.2860     8.3510    13.9800 ca         1 GCI      -0.322500
      5 C22         48.5520     2.6240    10.7590 ca         1 GCI      -0.354500
      6 C24         48.4960     7.8220    11.9770 ca         1 GCI      -0.174000
      7 C26         49.5450     9.1210    13.7230 ca         1 GCI      -0.174000
      8 C28         48.7650     3.9940    10.6360 ca         1 GCI       0.026500
      9 C01         47.8640     4.0210    14.0310 ca         1 GCI      -0.108000
     10 C02         47.6260     5.2040    14.7520 ca         1 GCI      -0.100000
     11 C03         46.3570     5.5250    15.1600 ca         1 GCI       0.259000
     12 C04         45.2600     4.6610    14.8830 ca         1 GCI      -0.017000
     13 C05         45.5020     3.4630    14.1420 ca         1 GCI      -0.027000
     14 C06         46.8330     3.1710    13.7250 ca         1 GCI       0.285000
     15 C07         43.9430     4.9510    15.3090 ca         1 GCI      -0.081000
     16 C08         42.9080     4.1020    15.0130 ca         1 GCI      -0.093000
     17 C09         43.1420     2.9270    14.2690 ca         1 GCI      -0.091000
     18 C16         46.3150     6.7770    17.3120 c3         1 GCI       0.153800
     19 C23         47.3350     7.7450    12.7260 ca         1 GCI       0.026000
     20 C25         49.6110     8.4990    12.4730 ca         1 GCI       0.032000
     21 C27         48.3820     9.0510    14.4730 ca         1 GCI       0.026000
     22 C29         49.9970     4.4690    10.2110 ca         1 GCI      -0.200000
     23 C30         51.0210     3.5680     9.9060 ca         1 GCI       0.202100
     24 C31         50.7970     2.1900    10.0290 ca         1 GCI      -0.200000
     25 C32         49.5720     1.7190    10.4540 ca         1 GCI       0.026500
     26 C34         52.5540     5.3250     9.3710 c3         1 GCI       0.145900
     27 C36         51.6920     9.4610    11.4250 c          1 GCI       0.629100
     28 C37         51.3390    10.8950    11.7520 c3         1 GCI      -0.153400
     29 C39         51.3360    11.7140    10.4580 c3         1 GCI       0.182800
     30 C40         47.7760     6.8320    17.7600 c          1 GCI       0.586100
     31 C43         48.4400     0.0620    14.0290 c          1 GCI       0.589100
     32 C47         49.0410    11.2330     9.7340 c6         1 GCI       0.136300
     33 C48         48.2910    10.2800     8.7970 c6         1 GCI       0.154600
     34 C50         49.5880    11.3750     7.1600 c6         1 GCI       0.154600
     35 C51         50.7550    11.6680     8.1120 c6         1 GCI       0.136300
     36 N11         47.0970     1.9680    12.9870 nh         1 GCI      -0.828300
     37 N35         50.8040     8.4690    11.7270 ns         1 GCI      -0.170000
     38 N41         47.9900     6.3780    19.0060 nt         1 GCI      -0.603000
     39 N44         49.5400     0.7720    13.7550 nt         1 GCI      -0.599000
     40 N46         50.4640    11.1370     9.4480 n3         1 GCI      -0.731600
     41 O17         46.8440     0.6610    10.8860 o          1 GCI      -0.538000
     42 O18         45.7600     9.2010    15.9500 o          1 GCI      -0.542000
     43 O19         44.7540     7.8690    14.1020 o          1 GCI      -0.542000
     44 O21         46.0050     3.0130    10.9810 o          1 GCI      -0.538000
     45 O33         52.2480     3.9320     9.4810 os         1 GCI      -0.342100
     46 O38         52.7340     9.1810    10.8400 o          1 GCI      -0.592100
     47 O42         48.6570     7.2980    17.0460 o          1 GCI      -0.618100
     48 O45         48.4580    -1.0520    14.5490 o          1 GCI      -0.606100
     49 O49         48.9330    10.1650     7.5210 os         1 GCI      -0.445000
     50 S14         45.8590     8.1220    14.9960 sy         1 GCI       1.223600
     51 S15         46.9990     2.0270    11.3280 sy         1 GCI       1.214600
     52 H101        44.5740     1.7200    13.2620 ha         1 GCI       0.116000
     53 H131        46.5590     0.8210    14.6300 h1         1 GCI       0.093700
     54 H132        46.5360    -0.0580    13.1150 h1         1 GCI       0.093700
     55 H241        48.5450     7.3540    11.0030 ha         1 GCI       0.125500
     56 H261        50.4130     9.6240    14.1250 ha         1 GCI       0.125500
     57 H281        47.9710     4.6910    10.8630 ha         1 GCI       0.138500
     58 H011        48.8700     3.7960    13.7080 ha         1 GCI       0.121000
     59 H021        48.4410     5.8740    14.9810 ha         1 GCI       0.147000
     60 H071        43.7640     5.8600    15.8650 ha         1 GCI       0.122000
     61 H081        41.9050     4.3350    15.3450 ha         1 GCI       0.120000
     62 H091        42.3160     2.2700    14.0300 ha         1 GCI       0.121000
     63 H161        45.8150     7.6560    17.7180 h1         1 GCI       0.083200
     64 H162        45.8190     5.9010    17.7330 h1         1 GCI       0.083200
     65 H231        46.4780     7.2100    12.3440 ha         1 GCI       0.146000
     66 H271        48.3430     9.5010    15.4540 ha         1 GCI       0.146000
     67 H291        50.1440     5.5330    10.1080 ha         1 GCI       0.128500
     68 H311        51.5970     1.5050     9.7800 ha         1 GCI       0.128500
     69 H321        49.4010     0.6560    10.5460 ha         1 GCI       0.138500
     70 H342        53.5740     5.3740     8.9990 h1         1 GCI       0.052700
     71 H343        51.8800     5.8200     8.6690 h1         1 GCI       0.052700
     72 H341        52.4950     5.8110    10.3470 h1         1 GCI       0.052700
     73 H372        50.3820    10.9740    12.2590 hc         1 GCI       0.068200
     74 H371        52.1000    11.2940    12.4250 hc         1 GCI       0.068200
     75 H392        52.3470    11.7290    10.0490 h1         1 GCI       0.046200
     76 H391        51.0630    12.7560    10.6940 h1         1 GCI       0.046200
     77 H472        48.8410    10.9310    10.7610 h1         1 GCI       0.040700
     78 H481        47.2570    10.6220     8.6650 h1         1 GCI       0.047450
     79 H482        48.2760     9.2730     9.2150 h1         1 GCI       0.047450
     80 H502        49.9480    11.2520     6.1400 h1         1 GCI       0.047450
     81 H501        48.8670    12.2010     7.1660 h1         1 GCI       0.047450
     82 H512        51.6770    11.2060     7.7520 h1         1 GCI       0.040700
     83 H511        50.9160    12.7580     8.1350 h1         1 GCI       0.040700
     84 H351        51.0230     7.5880    11.2810 hn         1 GCI       0.152000
     85 H411        48.9090     6.4520    19.4150 hn         1 GCI       0.320000
     86 H412        47.2480     5.9890    19.5640 hn         1 GCI       0.320000
     87 H441        50.4480     0.3870    13.9620 hn         1 GCI       0.318500
     88 H442        49.4900     1.6730    13.3130 hn         1 GCI       0.318500
     89 H471        48.6740    12.2670     9.6270 h1         1 GCI       0.040700
@<TRIPOS>BOND
     1     1    13 ar  
     2     1    17 ar  
     3     1    52 1   
     4     2    11 1   
     5     2    18 1   
     6     2    50 1   
     7     3    31 1   
     8     3    36 1   
     9     3    53 1   
    10     3    54 1   
    11     4    19 ar  
    12     4    21 ar  
    13     4    50 1   
    14     5     8 ar  
    15     5    25 ar  
    16     5    51 1   
    17     6    19 ar  
    18     6    20 ar  
    19     6    55 1   
    20     7    20 ar  
    21     7    21 ar  
    22     7    56 1   
    23     8    22 ar  
    24     8    57 1   
    25     9    10 ar  
    26     9    14 ar  
    27     9    58 1   
    28    10    11 ar  
    29    10    59 1   
    30    11    12 ar  
    31    12    13 ar  
    32    12    15 ar  
    33    13    14 ar  
    34    14    36 1   
    35    15    16 ar  
    36    15    60 1   
    37    16    17 ar  
    38    16    61 1   
    39    17    62 1   
    40    18    30 1   
    41    18    63 1   
    42    18    64 1   
    43    19    65 1   
    44    20    37 1   
    45    21    66 1   
    46    22    23 ar  
    47    22    67 1   
    48    23    24 ar  
    49    23    45 1   
    50    24    25 ar  
    51    24    68 1   
    52    25    69 1   
    53    26    45 1   
    54    26    70 1   
    55    26    71 1   
    56    26    72 1   
    57    27    28 1   
    58    27    37 1   
    59    27    46 2   
    60    28    29 1   
    61    28    73 1   
    62    28    74 1   
    63    29    40 1   
    64    29    75 1   
    65    29    76 1   
    66    30    38 1   
    67    30    47 2   
    68    31    39 1   
    69    31    48 2   
    70    32    33 1   
    71    32    40 1   
    72    32    77 1   
    73    32    89 1   
    74    33    49 1   
    75    33    78 1   
    76    33    79 1   
    77    34    35 1   
    78    34    49 1   
    79    34    80 1   
    80    34    81 1   
    81    35    40 1   
    82    35    82 1   
    83    35    83 1   
    84    36    51 1   
    85    37    84 1   
    86    38    85 1   
    87    38    86 1   
    88    39    87 1   
    89    39    88 1   
    90    41    51 2   
    91    42    50 2   
    92    43    50 2   
    93    44    51 2   
@<TRIPOS>SUBSTRUCTURE
     1 GCI         1 TEMP              0 ****  ****    0 ROOT
