@<TRIPOS>MOLECULE
GCI
   89    93     1     0     0
SMALL
No Charge or Current Charge


@<TRIPOS>ATOM
      1 C10         44.3830     2.6650    13.6210 ca         1 GCI      -0.089000
      2 N12         46.4720     6.5940    15.7480 nh         1 GCI      -0.799300
      3 C13         46.8850     0.4680    13.4900 c3         1 GCI       0.142800
      4 C20         47.5660     8.0840    13.7950 ca         1 GCI      -0.322500
      5 C22         48.7470     2.5360    10.8930 ca         1 GCI      -0.354500
      6 C24         48.4730     7.7480    11.5610 ca         1 GCI      -0.174000
      7 C26         49.9080     8.5680    13.3410 ca         1 GCI      -0.174000
      8 C28         48.9370     3.9240    10.7540 ca         1 GCI       0.026500
      9 C01         47.9450     3.7830    13.8420 ca         1 GCI      -0.108000
     10 C02         47.8010     4.9740    14.5670 ca         1 GCI      -0.100000
     11 C03         46.5370     5.4150    14.9820 ca         1 GCI       0.259000
     12 C04         45.3930     4.6260    14.6810 ca         1 GCI      -0.017000
     13 C05         45.5370     3.4270    13.9290 ca         1 GCI      -0.027000
     14 C06         46.8270     3.0070    13.5040 ca         1 GCI       0.285000
     15 C07         44.1050     5.0090    15.1270 ca         1 GCI      -0.081000
     16 C08         42.9760     4.2360    14.8200 ca         1 GCI      -0.093000
     17 C09         43.1140     3.0670    14.0620 ca         1 GCI      -0.091000
     18 C16         46.3400     6.5400    17.2370 c3         1 GCI       0.153800
     19 C23         47.3910     7.6850    12.4550 ca         1 GCI       0.026000
     20 C25         49.7260     8.2160    11.9900 ca         1 GCI       0.032000
     21 C27         48.8310     8.5110    14.2410 ca         1 GCI       0.026000
     22 C29         50.2350     4.4400    10.6010 ca         1 GCI      -0.200000
     23 C30         51.3470     3.5720    10.5820 ca         1 GCI       0.202100
     24 C31         51.1480     2.1910    10.7120 ca         1 GCI      -0.200000
     25 C32         49.8550     1.6670    10.8660 ca         1 GCI       0.026500
     26 C34         52.9650     5.4220    10.3460 c3         1 GCI       0.145900
     27 C36         51.8220     9.1930    10.9100 c          1 GCI       0.629100
     28 C37         51.6390    10.6150    11.4610 c3         1 GCI      -0.153400
     29 C39         51.3450    11.5920    10.3100 c3         1 GCI       0.182800
     30 C40         47.6260     6.8380    18.0610 c          1 GCI       0.586100
     31 C43         48.1430    -0.4450    13.5320 c          1 GCI       0.589100
     32 C47         48.8400    11.3680    10.3210 c6         1 GCI       0.136300
     33 C48         47.5710    11.0380     9.4670 c6         1 GCI       0.154600
     34 C50         48.7120    11.7090     7.4510 c6         1 GCI       0.154600
     35 C51         50.0160    12.0280     8.2560 c6         1 GCI       0.136300
     36 N11         47.0370     1.7970    12.8130 nh         1 GCI      -0.828300
     37 N35         50.7830     8.2850    11.0530 ns         1 GCI      -0.170000
     38 N41         48.0410     8.1260    18.0920 nt         1 GCI      -0.603000
     39 N44         49.3080     0.1660    13.8480 nt         1 GCI      -0.599000
     40 N46         50.1190    11.2660     9.5410 n3         1 GCI      -0.731600
     41 O17         47.0710     0.4800    10.6240 o          1 GCI      -0.538000
     42 O18         46.3600     9.1330    15.9210 o          1 GCI      -0.542000
     43 O19         44.9310     7.9100    14.1830 o          1 GCI      -0.542000
     44 O21         46.1060     2.8540    10.6820 o          1 GCI      -0.538000
     45 O33         52.6430     4.0230    10.4400 os         1 GCI      -0.342100
     46 O38         52.8450     8.8730    10.3140 o          1 GCI      -0.592100
     47 O42         48.2580     5.9840    18.6660 o          1 GCI      -0.618100
     48 O45         48.1230    -1.6460    13.3090 o          1 GCI      -0.606100
     49 O49         47.9190    10.6890     8.1050 os         1 GCI      -0.445000
     50 S14         46.1790     8.0630    14.9340 sy         1 GCI       1.223600
     51 S15         47.0970     1.8630    11.1120 sy         1 GCI       1.214600
     52 H101        44.4570     1.7560    13.0310 ha         1 GCI       0.116000
     53 H131        46.5940     0.6230    14.5360 h1         1 GCI       0.093700
     54 H132        46.0790    -0.1120    13.0220 h1         1 GCI       0.093700
     55 H241        48.3270     7.4550    10.5240 ha         1 GCI       0.125500
     56 H261        50.8830     8.8870    13.7030 ha         1 GCI       0.125500
     57 H281        48.0880     4.6060    10.7740 ha         1 GCI       0.138500
     58 H011        48.9380     3.4550    13.5490 ha         1 GCI       0.121000
     59 H021        48.6810     5.5580    14.8210 ha         1 GCI       0.147000
     60 H071        43.9650     5.9110    15.7150 ha         1 GCI       0.122000
     61 H081        41.9930     4.5470    15.1670 ha         1 GCI       0.120000
     62 H091        42.2380     2.4700    13.8170 ha         1 GCI       0.121000
     63 H161        45.5650     7.2390    17.5790 h1         1 GCI       0.083200
     64 H162        46.0020     5.5410    17.5390 h1         1 GCI       0.083200
     65 H231        46.4220     7.3380    12.0990 ha         1 GCI       0.146000
     66 H271        48.9840     8.8030    15.2790 ha         1 GCI       0.146000
     67 H291        50.3560     5.5120    10.4990 ha         1 GCI       0.128500
     68 H311        52.0030     1.5210    10.6950 ha         1 GCI       0.128500
     69 H321        49.7210     0.5910    10.9680 ha         1 GCI       0.138500
     70 H342        54.0480     5.5580    10.2420 h1         1 GCI       0.052700
     71 H343        52.4820     5.8770     9.4710 h1         1 GCI       0.052700
     72 H341        52.6410     5.9580    11.2470 h1         1 GCI       0.052700
     73 H372        50.8250    10.6830    12.1850 hc         1 GCI       0.068200
     74 H371        52.5750    10.9300    11.9350 hc         1 GCI       0.068200
     75 H392        52.2130    11.5860     9.6360 h1         1 GCI       0.046200
     76 H391        51.2700    12.6090    10.7200 h1         1 GCI       0.046200
     77 H472        48.8510    10.6870    11.1830 h1         1 GCI       0.040700
     78 H481        46.8960    11.9060     9.4550 h1         1 GCI       0.047450
     79 H482        47.0290    10.1960     9.9200 h1         1 GCI       0.047450
     80 H502        48.9720    11.3640     6.4410 h1         1 GCI       0.047450
     81 H501        48.1070    12.6220     7.3490 h1         1 GCI       0.047450
     82 H512        50.8840    11.8060     7.6170 h1         1 GCI       0.040700
     83 H511        50.0430    13.1100     8.4550 h1         1 GCI       0.040700
     84 H351        50.8820     7.4550    10.4860 hn         1 GCI       0.152000
     85 H411        48.8710     8.3700    18.6100 hn         1 GCI       0.320000
     86 H412        47.5320     8.8230    17.5640 hn         1 GCI       0.320000
     87 H441        50.1600    -0.3720    13.8910 hn         1 GCI       0.318500
     88 H442        49.3150     1.1650    13.9900 hn         1 GCI       0.318500
     89 H471        48.7280    12.3830    10.7280 h1         1 GCI       0.040700
@<TRIPOS>BOND
     1     1    13 ar  
     2     1    17 ar  
     3     1    52 1   
     4     2    11 1   
     5     2    18 1   
     6     2    50 1   
     7     3    31 1   
     8     3    36 1   
     9     3    53 1   
    10     3    54 1   
    11     4    19 ar  
    12     4    21 ar  
    13     4    50 1   
    14     5     8 ar  
    15     5    25 ar  
    16     5    51 1   
    17     6    19 ar  
    18     6    20 ar  
    19     6    55 1   
    20     7    20 ar  
    21     7    21 ar  
    22     7    56 1   
    23     8    22 ar  
    24     8    57 1   
    25     9    10 ar  
    26     9    14 ar  
    27     9    58 1   
    28    10    11 ar  
    29    10    59 1   
    30    11    12 ar  
    31    12    13 ar  
    32    12    15 ar  
    33    13    14 ar  
    34    14    36 1   
    35    15    16 ar  
    36    15    60 1   
    37    16    17 ar  
    38    16    61 1   
    39    17    62 1   
    40    18    30 1   
    41    18    63 1   
    42    18    64 1   
    43    19    65 1   
    44    20    37 1   
    45    21    66 1   
    46    22    23 ar  
    47    22    67 1   
    48    23    24 ar  
    49    23    45 1   
    50    24    25 ar  
    51    24    68 1   
    52    25    69 1   
    53    26    45 1   
    54    26    70 1   
    55    26    71 1   
    56    26    72 1   
    57    27    28 1   
    58    27    37 1   
    59    27    46 2   
    60    28    29 1   
    61    28    73 1   
    62    28    74 1   
    63    29    40 1   
    64    29    75 1   
    65    29    76 1   
    66    30    38 1   
    67    30    47 2   
    68    31    39 1   
    69    31    48 2   
    70    32    33 1   
    71    32    40 1   
    72    32    77 1   
    73    32    89 1   
    74    33    49 1   
    75    33    78 1   
    76    33    79 1   
    77    34    35 1   
    78    34    49 1   
    79    34    80 1   
    80    34    81 1   
    81    35    40 1   
    82    35    82 1   
    83    35    83 1   
    84    36    51 1   
    85    37    84 1   
    86    38    85 1   
    87    38    86 1   
    88    39    87 1   
    89    39    88 1   
    90    41    51 2   
    91    42    50 2   
    92    43    50 2   
    93    44    51 2   
@<TRIPOS>SUBSTRUCTURE
     1 GCI         1 TEMP              0 ****  ****    0 ROOT
