@<TRIPOS>MOLECULE
GCN
   24    24     1     0     0
SMALL
No Charge or Current Charge


@<TRIPOS>ATOM
      1 C1          54.9620    73.7650    59.6880 c6         1 GCN       0.392300
      2 C2          53.9290    74.8510    59.1630 c6         1 GCN       0.145500
      3 C3          52.8040    74.1890    58.3220 c6         1 GCN      -0.078400
      4 C4          53.4120    73.2930    57.2170 c6         1 GCN       0.156300
      5 C5          54.3970    72.2580    57.8470 c6         1 GCN       0.129300
      6 C6          55.0950    71.3720    56.7680 c3         1 GCN       0.156600
      7 N2          53.3330    75.7160    60.2280 n8         1 GCN      -0.976200
      8 O1          54.4020    72.8850    60.6620 oh         1 GCN      -0.648000
      9 O4          52.3800    72.6170    56.4890 oh         1 GCN      -0.717000
     10 O5          55.4340    72.9450    58.5990 os         1 GCN      -0.497000
     11 O6          54.1470    70.6610    55.9430 oh         1 GCN      -0.737000
     12 H1          55.8230    74.2900    60.1310 h2         1 GCN       0.056700
     13 H2          54.4880    75.5300    58.5020 h1         1 GCN       0.023700
     14 H3          52.1560    73.5870    58.9740 hc         1 GCN       0.070200
     15 H32         52.1680    74.9590    57.8660 hc         1 GCN       0.070200
     16 H4          53.9850    73.9310    56.5280 h1         1 GCN       0.026700
     17 H5          53.8420    71.5890    58.5230 h1         1 GCN       0.072700
     18 H61         55.7290    72.0170    56.1450 h1         1 GCN       0.036200
     19 H62         55.7540    70.6610    57.2850 h1         1 GCN       0.036200
     20 HN21        52.8520    76.5080    59.7850 hn         1 GCN       0.395000
     21 HN22        54.0890    76.1620    60.7610 hn         1 GCN       0.395000
     22 HO1         55.1060    72.2270    60.8340 ho         1 GCN       0.448000
     23 HO4         52.8420    71.8020    56.1360 ho         1 GCN       0.527000
     24 HO6         54.6650    70.0150    55.4020 ho         1 GCN       0.515000
@<TRIPOS>BOND
     1     1     2 1   
     2     1     8 1   
     3     1    10 1   
     4     1    12 1   
     5     2     3 1   
     6     2     7 1   
     7     2    13 1   
     8     3     4 1   
     9     3    14 1   
    10     3    15 1   
    11     4     5 1   
    12     4     9 1   
    13     4    16 1   
    14     5     6 1   
    15     5    10 1   
    16     5    17 1   
    17     6    11 1   
    18     6    18 1   
    19     6    19 1   
    20     7    20 1   
    21     7    21 1   
    22     8    22 1   
    23     9    23 1   
    24    11    24 1   
@<TRIPOS>SUBSTRUCTURE
     1 GCN         1 TEMP              0 ****  ****    0 ROOT
