@<TRIPOS>MOLECULE
GCN
   24    24     1     0     0
SMALL
bcc


@<TRIPOS>ATOM
      1 C1          54.9130    73.7210    59.6570 c6         1 GCN       0.345900
      2 C2          53.9800    74.7950    59.1000 c6         1 GCN       0.145500
      3 C3          52.8350    74.1340    58.3460 c6         1 GCN      -0.078400
      4 C4          53.3750    73.2170    57.2600 c6         1 GCN       0.133100
      5 C5          54.3780    72.2250    57.8630 c6         1 GCN       0.106100
      6 C6          55.1520    71.4470    56.8090 c3         1 GCN       0.133400
      7 N2          53.4720    75.6470    60.1610 n8         1 GCN      -0.865800
      8 O1          54.2510    72.9990    60.6420 oh         1 GCN      -0.585800
      9 O4          52.2890    72.5630    56.6470 oh         1 GCN      -0.594800
     10 O5          55.3740    72.9030    58.6100 os         1 GCN      -0.450600
     11 O6          54.2370    70.6880    56.0410 oh         1 GCN      -0.614800
     12 H1          55.8240    74.1880    60.0540 h2         1 GCN       0.056700
     13 H2          54.5860    75.3530    58.3690 h1         1 GCN       0.023700
     14 H3          52.2130    73.5620    59.0400 hc         1 GCN       0.070200
     15 H32         52.1970    74.9010    57.8970 hc         1 GCN       0.070200
     16 H4          53.9230    73.8350    56.5280 h1         1 GCN       0.026700
     17 H5          53.8260    71.5190    58.5010 h1         1 GCN       0.072700
     18 H61         55.7070    72.1560    56.1820 h1         1 GCN       0.036200
     19 H62         55.8850    70.7980    57.3030 h1         1 GCN       0.036200
     20 HN21        52.9040    76.3770    59.7470 hn         1 GCN       0.339800
     21 HN22        54.2430    76.1280    60.6100 hn         1 GCN       0.339800
     22 HO1         54.8860    72.4370    61.0980 ho         1 GCN       0.409000
     23 HO4         52.6580    71.8710    56.0810 ho         1 GCN       0.428000
     24 HO6         54.6840    70.3660    55.2530 ho         1 GCN       0.416000
@<TRIPOS>BOND
     1     1     2 1   
     2     1     8 1   
     3     1    10 1   
     4     1    12 1   
     5     2     3 1   
     6     2     7 1   
     7     2    13 1   
     8     3     4 1   
     9     3    14 1   
    10     3    15 1   
    11     4     5 1   
    12     4     9 1   
    13     4    16 1   
    14     5     6 1   
    15     5    10 1   
    16     5    17 1   
    17     6    11 1   
    18     6    18 1   
    19     6    19 1   
    20     7    20 1   
    21     7    21 1   
    22     8    22 1   
    23     9    23 1   
    24    11    24 1   
@<TRIPOS>SUBSTRUCTURE
     1 GCN         1 TEMP              0 ****  ****    0 ROOT
