@<TRIPOS>MOLECULE
GCO
   24    23     1     0     0
SMALL
No Charge or Current Charge


@<TRIPOS>ATOM
      1 C1          -0.3390     0.1570    -2.9870 c          1 GCO       0.696000
      2 C2           0.5010     0.3150    -1.6680 c3         1 GCO      -0.016700
      3 C3          -0.2650    -0.1790    -0.4100 c3         1 GCO       0.144300
      4 C4           0.3660     0.4010     0.9010 c3         1 GCO       0.113300
      5 C5          -0.3510    -0.0660     2.2070 c3         1 GCO       0.136300
      6 C6           0.2970     0.5010     3.4990 c3         1 GCO       0.122600
      7 O11          0.2040    -0.4000    -3.9330 o          1 GCO      -0.712000
      8 O12         -1.4620     0.6370    -3.0360 o          1 GCO      -0.712000
      9 O2           1.8020    -0.3610    -1.7320 oh         1 GCO      -0.775000
     10 O3          -0.1890    -1.6150    -0.4260 oh         1 GCO      -0.731000
     11 O4           1.7660     0.0560     0.9210 oh         1 GCO      -0.717000
     12 O5          -1.7260     0.3560     2.2110 oh         1 GCO      -0.692000
     13 O6          -0.5520     0.2230     4.6310 oh         1 GCO      -0.712000
     14 H2           0.6610     1.3970    -1.5600 h1         1 GCO       0.036700
     15 H3          -1.3100     0.1610    -0.4630 h1         1 GCO       0.098700
     16 H4           0.2680     1.4950     0.8490 h1         1 GCO       0.059700
     17 H5          -0.2930    -1.1620     2.2590 h1         1 GCO       0.089700
     18 H61          0.4420     1.5850     3.3910 h1         1 GCO       0.021700
     19 H62          1.2850     0.0430     3.6410 h1         1 GCO       0.021700
     20 HO2          1.9660    -0.5140    -2.7030 ho         1 GCO       0.540000
     21 HO3          0.6770    -1.7820    -0.8720 ho         1 GCO       0.510000
     22 HO4          1.9780    -0.0970    -0.0460 ho         1 GCO       0.502000
     23 HO5         -1.9310     0.4160     3.1770 ho         1 GCO       0.489000
     24 HO6         -0.0610     0.5100     5.4380 ho         1 GCO       0.486000
@<TRIPOS>BOND
     1     1     2 1   
     2     1     7 1   
     3     1     8 1   
     4     2     3 1   
     5     2     9 1   
     6     2    14 1   
     7     3     4 1   
     8     3    10 1   
     9     3    15 1   
    10     4     5 1   
    11     4    11 1   
    12     4    16 1   
    13     5     6 1   
    14     5    12 1   
    15     5    17 1   
    16     6    13 1   
    17     6    18 1   
    18     6    19 1   
    19     9    20 1   
    20    10    21 1   
    21    11    22 1   
    22    12    23 1   
    23    13    24 1   
@<TRIPOS>SUBSTRUCTURE
     1 GCO         1 TEMP              0 ****  ****    0 ROOT
