@<TRIPOS>MOLECULE
GCO
   24    23     1     0     0
SMALL
abcg2


@<TRIPOS>ATOM
      1 C1          -0.4400     0.2860    -2.8580 c          1 GCO       0.696000
      2 C2           0.4800     0.4560    -1.6230 c3         1 GCO      -0.016700
      3 C3          -0.1570    -0.1560    -0.3700 c3         1 GCO       0.144300
      4 C4           0.4350     0.3930     0.9310 c3         1 GCO       0.113300
      5 C5          -0.2920    -0.1500     2.1750 c3         1 GCO       0.136300
      6 C6           0.2700     0.4600     3.4500 c3         1 GCO       0.122600
      7 O11          0.1060    -0.2800    -3.8330 o          1 GCO      -0.712000
      8 O12         -1.5960     0.7260    -2.7880 o          1 GCO      -0.712000
      9 O2           1.7150    -0.1580    -1.9020 oh         1 GCO      -0.775000
     10 O3          -0.0610    -1.5640    -0.4280 oh         1 GCO      -0.731000
     11 O4           1.8260     0.1760     1.0310 oh         1 GCO      -0.717000
     12 O5          -1.6870     0.0440     2.0830 oh         1 GCO      -0.692000
     13 O6          -0.3660    -0.1350     4.5580 oh         1 GCO      -0.712000
     14 H2           0.6060     1.5360    -1.4560 h1         1 GCO       0.036700
     15 H3          -1.2160     0.1110    -0.3820 h1         1 GCO       0.098700
     16 H4           0.3060     1.4830     0.9080 h1         1 GCO       0.059700
     17 H5          -0.1480    -1.2360     2.2160 h1         1 GCO       0.089700
     18 H61          0.1070     1.5490     3.4270 h1         1 GCO       0.021700
     19 H62          1.3530     0.3030     3.4780 h1         1 GCO       0.021700
     20 HO2          1.5820    -0.4470    -2.8290 ho         1 GCO       0.540000
     21 HO3          0.7540    -1.7600    -0.9100 ho         1 GCO       0.510000
     22 HO4          1.9890    -0.7720     0.9790 ho         1 GCO       0.502000
     23 HO5         -1.8650     0.9910     2.0790 ho         1 GCO       0.489000
     24 HO6          0.0340     0.2230     5.3550 ho         1 GCO       0.486000
@<TRIPOS>BOND
     1     1     2 1   
     2     1     7 1   
     3     1     8 1   
     4     2     3 1   
     5     2     9 1   
     6     2    14 1   
     7     3     4 1   
     8     3    10 1   
     9     3    15 1   
    10     4     5 1   
    11     4    11 1   
    12     4    16 1   
    13     5     6 1   
    14     5    12 1   
    15     5    17 1   
    16     6    13 1   
    17     6    18 1   
    18     6    19 1   
    19     9    20 1   
    20    10    21 1   
    21    11    22 1   
    22    12    23 1   
    23    13    24 1   
@<TRIPOS>SUBSTRUCTURE
     1 GCO         1 TEMP              0 ****  ****    0 ROOT
