@<TRIPOS>MOLECULE
GCP
   46    48     1     0     0
SMALL
abcg2


@<TRIPOS>ATOM
      1 PG          -2.6560     1.0080     2.9060 p5         1 GCP       1.357500
      2 O1G         -2.2820     1.5700     4.2820 o          1 GCP      -0.958833
      3 O2G         -3.2370     2.0760     1.9630 o          1 GCP      -0.958833
      4 O3G         -3.4990    -0.2710     2.9680 o          1 GCP      -0.958833
      5 C3B         -1.0460     0.5190     2.0870 c3         1 GCP      -0.776400
      6 PB          -0.3160    -1.0350     2.6480 p5         1 GCP       1.513400
      7 O1B         -0.1420    -1.0970     4.1420 o          1 GCP      -0.878500
      8 O2B         -0.9120    -2.2150     1.9280 o          1 GCP      -0.878500
      9 O3A          1.2420    -0.9600     1.9790 os         1 GCP      -0.749800
     10 PA           2.5320    -0.1150     2.4800 p5         1 GCP       1.457800
     11 O1A          2.1370     1.1720     3.1400 o          1 GCP      -0.863000
     12 O2A          3.5180    -1.0370     3.1310 o          1 GCP      -0.863000
     13 O5           3.1870     0.2230     0.9990 os         1 GCP      -0.593400
     14 C5           2.4660     1.0580     0.1260 c3         1 GCP       0.231600
     15 C4           2.8090     0.7010    -1.3000 c5         1 GCP       0.160300
     16 O4           2.4050    -0.6370    -1.5980 os         1 GCP      -0.394000
     17 C3           2.0850     1.5710    -2.3240 c5         1 GCP       0.077300
     18 O3           2.8190     2.7370    -2.5780 oh         1 GCP      -0.719000
     19 C2           1.9840     0.6290    -3.5260 c5         1 GCP       0.079300
     20 O2           3.2080     0.5450    -4.2050 oh         1 GCP      -0.729000
     21 C1           1.7580    -0.7100    -2.8290 c5         1 GCP       0.324300
     22 N9           0.3350    -0.9690    -2.6120 na         1 GCP      -0.211500
     23 C8          -0.3310    -1.1680    -1.4240 cc         1 GCP       0.505400
     24 N7          -1.5900    -1.4370    -1.5970 nd         1 GCP      -0.524000
     25 C7          -1.7680    -1.4340    -2.9540 cd         1 GCP       0.136500
     26 C6          -2.9330    -1.6750    -3.7390 c          1 GCP       0.514500
     27 O6          -4.0670    -1.9310    -3.3690 o          1 GCP      -0.533000
     28 N1          -2.6340    -1.5860    -5.1050 ns         1 GCP      -0.462400
     29 C10         -1.4100    -1.3150    -5.6460 cd         1 GCP       0.637800
     30 N2          -1.3220    -1.3250    -6.9860 nv         1 GCP      -1.068200
     31 N3          -0.3440    -1.0890    -4.9210 nc         1 GCP      -0.670100
     32 C9          -0.5790    -1.1570    -3.6010 cc         1 GCP       0.025400
     33 H3B1        -0.3180     1.3210     2.2290 hc         1 GCP       0.024700
     34 H3B2        -1.2150     0.4230     1.0100 hc         1 GCP       0.024700
     35 H5'2         1.3810     0.9720     0.2650 h1         1 GCP       0.039700
     36 H5'1         2.7250     2.1120     0.2840 h1         1 GCP       0.039700
     37 H4           3.8930     0.7840    -1.4480 h1         1 GCP       0.048700
     38 H3           1.0730     1.8040    -1.9660 h1         1 GCP       0.093700
     39 HO3          2.2360     3.3860    -2.9840 ho         1 GCP       0.487000
     40 H2           1.1640     0.8910    -4.2020 h1         1 GCP       0.058700
     41 HO2          3.5910     1.4310    -4.2310 ho         1 GCP       0.500000
     42 H1           2.1590    -1.5410    -3.4160 h2         1 GCP       0.076700
     43 H8           0.1630    -1.1170    -0.4660 h5         1 GCP       0.161100
     44 HN1         -3.4090    -1.7540    -5.7340 hn         1 GCP       0.282500
     45 HN21        -0.4750    -0.9640    -7.3920 hn         1 GCP       0.464500
     46 HN22        -2.1500    -1.2450    -7.5510 hn         1 GCP       0.464500
@<TRIPOS>BOND
     1     1     2 1   
     2     1     3 1   
     3     1     4 1   
     4     1     5 1   
     5     5     6 1   
     6     5    33 1   
     7     5    34 1   
     8     6     7 1   
     9     6     8 1   
    10     6     9 1   
    11     9    10 1   
    12    10    11 1   
    13    10    12 1   
    14    10    13 1   
    15    13    14 1   
    16    14    15 1   
    17    14    35 1   
    18    14    36 1   
    19    15    16 1   
    20    15    17 1   
    21    15    37 1   
    22    16    21 1   
    23    17    18 1   
    24    17    19 1   
    25    17    38 1   
    26    18    39 1   
    27    19    20 1   
    28    19    21 1   
    29    19    40 1   
    30    20    41 1   
    31    21    22 1   
    32    21    42 1   
    33    22    23 1   
    34    22    32 1   
    35    23    24 2   
    36    23    43 1   
    37    24    25 1   
    38    25    26 1   
    39    25    32 2   
    40    26    27 2   
    41    26    28 1   
    42    28    29 1   
    43    28    44 1   
    44    29    30 1   
    45    29    31 2   
    46    30    45 1   
    47    30    46 1   
    48    31    32 1   
@<TRIPOS>SUBSTRUCTURE
     1 GCP         1 TEMP              0 ****  ****    0 ROOT
