@<TRIPOS>MOLECULE
GCP
   46    48     1     0     0
SMALL
No Charge or Current Charge


@<TRIPOS>ATOM
      1 PG          -1.0490     2.0750     2.0490 p5         1 GCP       1.357500
      2 O1G          0.4040     2.3840     1.9550 o          1 GCP      -0.958833
      3 O2G         -1.7820     2.8000     0.9730 o          1 GCP      -0.958833
      4 O3G         -1.6360     2.4920     3.3540 o          1 GCP      -0.958833
      5 C3B         -1.4890     0.3800     1.7840 c3         1 GCP      -0.776400
      6 PB          -0.2160    -0.6330     2.5060 p5         1 GCP       1.513400
      7 O1B          0.2630    -0.1190     3.8240 o          1 GCP      -0.878500
      8 O2B         -0.8780    -1.9700     2.6220 o          1 GCP      -0.878500
      9 O3A          0.8100    -0.5850     1.3050 os         1 GCP      -0.749800
     10 PA           2.1210    -1.4030     1.6090 p5         1 GCP       1.457800
     11 O1A          3.0290    -0.7740     2.6130 o          1 GCP      -0.863000
     12 O2A          1.8820    -2.8470     1.9010 o          1 GCP      -0.863000
     13 O5           2.7770    -1.2950     0.1390 os         1 GCP      -0.593400
     14 C5           3.4630    -0.0980    -0.2790 c3         1 GCP       0.231600
     15 C4           2.6990     0.6570    -1.4130 c5         1 GCP       0.160300
     16 O4           1.8750    -0.2150    -2.2200 os         1 GCP      -0.394000
     17 C3           1.6670     1.7190    -0.9490 c5         1 GCP       0.077300
     18 O3           2.2270     2.8780    -0.3080 oh         1 GCP      -0.719000
     19 C2           1.0100     2.0530    -2.3180 c5         1 GCP       0.079300
     20 O2           1.8530     2.9700    -3.0330 oh         1 GCP      -0.729000
     21 C1           0.9360     0.6080    -2.9640 c5         1 GCP       0.324300
     22 N9          -0.3750    -0.0500    -2.9610 na         1 GCP      -0.211500
     23 C8          -1.4410     0.2220    -2.1170 cc         1 GCP       0.505400
     24 N7          -2.5130    -0.5000    -2.4410 nd         1 GCP      -0.524000
     25 C7          -2.1260    -1.2710    -3.5260 cd         1 GCP       0.136500
     26 C6          -2.8810    -2.2840    -4.3210 c          1 GCP       0.514500
     27 O6          -4.0450    -2.6190    -4.1350 o          1 GCP      -0.533000
     28 N1          -2.1200    -2.8320    -5.3170 ns         1 GCP      -0.462400
     29 C10         -0.8330    -2.4820    -5.5440 cd         1 GCP       0.637800
     30 N2          -0.2070    -3.1190    -6.5230 nv         1 GCP      -1.068200
     31 N3          -0.1240    -1.5900    -4.8890 nc         1 GCP      -0.670100
     32 C9          -0.8200    -0.9920    -3.8570 cc         1 GCP       0.025400
     33 H3B1        -1.5820     0.1480     0.7230 hc         1 GCP       0.024700
     34 H3B2        -2.4440     0.1620     2.2690 hc         1 GCP       0.024700
     35 H5'2         3.6210     0.5980     0.5550 h1         1 GCP       0.039700
     36 H5'1         4.4570    -0.3650    -0.6600 h1         1 GCP       0.039700
     37 H4           3.4560     1.1140    -2.0660 h1         1 GCP       0.048700
     38 H3           0.9280     1.2490    -0.2900 h1         1 GCP       0.093700
     39 HO3          1.7580     2.9250     0.5720 ho         1 GCP       0.487000
     40 H2           0.0140     2.4960    -2.1810 h1         1 GCP       0.058700
     41 HO2          2.3260     3.4500    -2.3060 ho         1 GCP       0.500000
     42 H1           1.2420     0.6600    -4.0160 h2         1 GCP       0.076700
     43 H8          -1.3850     0.9530    -1.3190 h5         1 GCP       0.161100
     44 HN1         -2.5580    -3.5400    -5.8820 hn         1 GCP       0.282500
     45 HN21         0.6810    -2.7160    -6.8000 hn         1 GCP       0.464500
     46 HN22        -0.7620    -3.5460    -7.2530 hn         1 GCP       0.464500
@<TRIPOS>BOND
     1     1     2 1   
     2     1     3 1   
     3     1     4 1   
     4     1     5 1   
     5     5     6 1   
     6     5    33 1   
     7     5    34 1   
     8     6     7 1   
     9     6     8 1   
    10     6     9 1   
    11     9    10 1   
    12    10    11 1   
    13    10    12 1   
    14    10    13 1   
    15    13    14 1   
    16    14    15 1   
    17    14    35 1   
    18    14    36 1   
    19    15    16 1   
    20    15    17 1   
    21    15    37 1   
    22    16    21 1   
    23    17    18 1   
    24    17    19 1   
    25    17    38 1   
    26    18    39 1   
    27    19    20 1   
    28    19    21 1   
    29    19    40 1   
    30    20    41 1   
    31    21    22 1   
    32    21    42 1   
    33    22    23 1   
    34    22    32 1   
    35    23    24 2   
    36    23    43 1   
    37    24    25 1   
    38    25    26 1   
    39    25    32 2   
    40    26    27 2   
    41    26    28 1   
    42    28    29 1   
    43    28    44 1   
    44    29    30 1   
    45    29    31 2   
    46    30    45 1   
    47    30    46 1   
    48    31    32 1   
@<TRIPOS>SUBSTRUCTURE
     1 GCP         1 TEMP              0 ****  ****    0 ROOT
