@<TRIPOS>MOLECULE
GCS
   25    25     1     0     0
SMALL
No Charge or Current Charge


@<TRIPOS>ATOM
      1 C1          20.3790    46.0200    45.7510 c6         1 GCS       0.395300
      2 C2          21.1320    44.6400    45.8610 c6         1 GCS       0.145500
      3 C3          21.5210    44.1630    44.4240 c6         1 GCS       0.169300
      4 C4          20.2730    44.1440    43.4890 c6         1 GCS       0.097300
      5 C5          19.5880    45.5500    43.5140 c6         1 GCS       0.155300
      6 C6          18.2780    45.6070    42.6580 c3         1 GCS       0.169600
      7 N2          22.3250    44.6660    46.7780 n8         1 GCS      -1.000200
      8 O1          19.8290    46.4160    46.9950 oh         1 GCS      -0.641000
      9 O3          22.1280    42.8570    44.4450 oh         1 GCS      -0.662000
     10 O4          20.6700    43.7480    42.1550 oh         1 GCS      -0.723000
     11 O5          19.2500    45.9030    44.8810 os         1 GCS      -0.476000
     12 O6          17.6070    46.8810    42.7270 oh         1 GCS      -0.706000
     13 H1          21.0600    46.7990    45.3740 h2         1 GCS       0.035700
     14 H2          20.4260    43.9050    46.2770 h1         1 GCS       0.052700
     15 H3          22.2360    44.8920    44.0110 h1         1 GCS       0.057700
     16 H4          19.5560    43.4130    43.8970 h1         1 GCS       0.055700
     17 H5          20.2860    46.3020    43.1170 h1         1 GCS       0.060700
     18 H61         18.5360    45.3830    41.6140 h1         1 GCS       0.025200
     19 H62         17.6060    44.8110    43.0070 h1         1 GCS       0.025200
     20 HN21        22.7530    43.7320    46.7540 hn         1 GCS       0.412000
     21 HN22        21.9880    44.7570    47.7440 hn         1 GCS       0.412000
     22 HO1         18.9320    46.7240    46.7480 ho         1 GCS       0.463000
     23 HO3         22.0950    42.5570    43.5080 ho         1 GCS       0.460000
     24 HO4         19.8810    43.3610    41.7070 ho         1 GCS       0.510000
     25 HO6         16.7650    46.7900    42.2210 ho         1 GCS       0.504000
@<TRIPOS>BOND
     1     1     2 1   
     2     1     8 1   
     3     1    11 1   
     4     1    13 1   
     5     2     3 1   
     6     2     7 1   
     7     2    14 1   
     8     3     4 1   
     9     3     9 1   
    10     3    15 1   
    11     4     5 1   
    12     4    10 1   
    13     4    16 1   
    14     5     6 1   
    15     5    11 1   
    16     5    17 1   
    17     6    12 1   
    18     6    18 1   
    19     6    19 1   
    20     7    20 1   
    21     7    21 1   
    22     8    22 1   
    23     9    23 1   
    24    10    24 1   
    25    12    25 1   
@<TRIPOS>SUBSTRUCTURE
     1 GCS         1 TEMP              0 ****  ****    0 ROOT
