@<TRIPOS>MOLECULE
GCS
   25    25     1     0     0
SMALL
bcc


@<TRIPOS>ATOM
      1 C1          20.2600    45.8890    45.7380 c6         1 GCS       0.348900
      2 C2          21.0150    44.5660    45.8250 c6         1 GCS       0.145500
      3 C3          21.4250    44.1560    44.4180 c6         1 GCS       0.146100
      4 C4          20.2320    44.1530    43.4680 c6         1 GCS       0.074100
      5 C5          19.5150    45.5050    43.5400 c6         1 GCS       0.132100
      6 C6          18.2570    45.5330    42.6970 c3         1 GCS       0.146400
      7 N2          22.1970    44.7380    46.6500 n8         1 GCS      -0.889800
      8 O1          19.7990    46.2190    46.9960 oh         1 GCS      -0.578800
      9 O3          22.0320    42.8890    44.4920 oh         1 GCS      -0.599800
     10 O4          20.7360    43.8890    42.1760 oh         1 GCS      -0.600800
     11 O5          19.1520    45.7680    44.8780 os         1 GCS      -0.429600
     12 O6          17.7180    46.8330    42.7210 oh         1 GCS      -0.583800
     13 H1          20.9450    46.6600    45.3420 h2         1 GCS       0.035700
     14 H2          20.3130    43.8080    46.2120 h1         1 GCS       0.052700
     15 H3          22.1430    44.9090    44.0490 h1         1 GCS       0.057700
     16 H4          19.5310    43.3680    43.7870 h1         1 GCS       0.055700
     17 H5          20.2040    46.2830    43.1690 h1         1 GCS       0.060700
     18 H61         18.5160    45.2260    41.6770 h1         1 GCS       0.025200
     19 H62         17.5500    44.7880    43.0890 h1         1 GCS       0.025200
     20 HN21        22.7370    43.8830    46.6470 hn         1 GCS       0.356800
     21 HN22        21.9200    44.8870    47.6110 hn         1 GCS       0.356800
     22 HO1         19.5630    47.1530    47.0160 ho         1 GCS       0.424000
     23 HO3         22.3480    42.6580    43.6120 ho         1 GCS       0.421000
     24 HO4         20.0690    43.4240    41.6650 ho         1 GCS       0.411000
     25 HO6         16.9230    46.8370    42.1810 ho         1 GCS       0.405000
@<TRIPOS>BOND
     1     1     2 1   
     2     1     8 1   
     3     1    11 1   
     4     1    13 1   
     5     2     3 1   
     6     2     7 1   
     7     2    14 1   
     8     3     4 1   
     9     3     9 1   
    10     3    15 1   
    11     4     5 1   
    12     4    10 1   
    13     4    16 1   
    14     5     6 1   
    15     5    11 1   
    16     5    17 1   
    17     6    12 1   
    18     6    18 1   
    19     6    19 1   
    20     7    20 1   
    21     7    21 1   
    22     8    22 1   
    23     9    23 1   
    24    10    24 1   
    25    12    25 1   
@<TRIPOS>SUBSTRUCTURE
     1 GCS         1 TEMP              0 ****  ****    0 ROOT
