@<TRIPOS>MOLECULE
GCT
   20    20     1     0     0
SMALL
No Charge or Current Charge


@<TRIPOS>ATOM
      1 C1           1.5840    -0.3900     0.9580 c6         1 GCT       0.129600
      2 C2           0.5150     0.2060     1.9180 c6         1 GCT       0.086300
      3 O2           0.7040    -0.2420     3.2790 oh         1 GCT      -0.743000
      4 C3          -0.9020    -0.1880     1.4030 c6         1 GCT       0.169300
      5 O3          -1.9030     0.4110     2.2310 oh         1 GCT      -0.666000
      6 C4          -1.0850     0.2370    -0.0730 c6         1 GCT      -0.091400
      7 C5           0.0610    -0.3400    -0.9510 c6         1 GCT       0.016300
      8 C6          -0.1340     0.0530    -2.4620 c          1 GCT       0.732000
      9 O6A          0.5930     0.9360    -2.9050 o          1 GCT      -0.715000
     10 O6B         -0.4920    -0.8580    -3.2000 o          1 GCT      -0.715000
     11 O5           1.3470     0.0680    -0.3920 os         1 GCT      -0.407000
     12 HC11         2.5890    -0.0680     1.2660 h1         1 GCT       0.025700
     13 HC12         1.5510    -1.4890     0.9780 h1         1 GCT       0.025700
     14 HC2          0.6030     1.3030     1.8740 h1         1 GCT       0.048700
     15 HO2          1.5910     0.0780     3.5700 ho         1 GCT       0.493000
     16 HC3         -0.9920    -1.2840     1.4550 h1         1 GCT       0.028700
     17 HO3         -1.5280     0.3520     3.1390 ho         1 GCT       0.435000
     18 HC41        -1.0970     1.3320    -0.1550 hc         1 GCT       0.065700
     19 HC42        -2.0540    -0.1200    -0.4460 hc         1 GCT       0.065700
     20 HC5          0.0110    -1.4390    -0.9010 h1         1 GCT       0.014700
@<TRIPOS>BOND
     1     1     2 1   
     2     1    11 1   
     3     1    12 1   
     4     1    13 1   
     5     2     3 1   
     6     2     4 1   
     7     2    14 1   
     8     3    15 1   
     9     4     5 1   
    10     4     6 1   
    11     4    16 1   
    12     5    17 1   
    13     6     7 1   
    14     6    18 1   
    15     6    19 1   
    16     7     8 1   
    17     7    11 1   
    18     7    20 1   
    19     8     9 1   
    20     8    10 1   
@<TRIPOS>SUBSTRUCTURE
     1 GCT         1 TEMP              0 ****  ****    0 ROOT
