@<TRIPOS>MOLECULE
GCT
   20    20     1     0     0
SMALL
abcg2


@<TRIPOS>ATOM
      1 C1           1.5840    -0.3300     0.9200 c6         1 GCT       0.129600
      2 C2           0.5240     0.2320     1.8670 c6         1 GCT       0.086300
      3 O2           0.7090    -0.2480     3.1820 oh         1 GCT      -0.743000
      4 C3          -0.8520    -0.2050     1.3930 c6         1 GCT       0.169300
      5 O3          -1.8910     0.3860     2.1400 oh         1 GCT      -0.666000
      6 C4          -1.0240     0.1720    -0.0700 c6         1 GCT      -0.091400
      7 C5           0.1310    -0.3720    -0.9080 c6         1 GCT       0.016300
      8 C6          -0.0170     0.0120    -2.3930 c          1 GCT       0.732000
      9 O6A          0.9010     0.6560    -2.9240 o          1 GCT      -0.715000
     10 O6B         -1.0760    -0.3800    -2.9240 o          1 GCT      -0.715000
     11 O5           1.3690     0.0830    -0.4040 os         1 GCT      -0.407000
     12 HC11         2.5760     0.0220     1.2160 h1         1 GCT       0.025700
     13 HC12         1.5870    -1.4280     1.0010 h1         1 GCT       0.025700
     14 HC2          0.5690     1.3310     1.8380 h1         1 GCT       0.048700
     15 HO2          1.4570     0.2100     3.5770 ho         1 GCT       0.493000
     16 HC3         -0.8950    -1.3050     1.4730 h1         1 GCT       0.028700
     17 HO3         -1.7560     0.1600     3.0670 ho         1 GCT       0.435000
     18 HC41        -1.0690     1.2630    -0.1650 hc         1 GCT       0.065700
     19 HC42        -1.9640    -0.2290    -0.4510 hc         1 GCT       0.065700
     20 HC5          0.1010    -1.4740    -0.8460 h1         1 GCT       0.014700
@<TRIPOS>BOND
     1     1     2 1   
     2     1    11 1   
     3     1    12 1   
     4     1    13 1   
     5     2     3 1   
     6     2     4 1   
     7     2    14 1   
     8     3    15 1   
     9     4     5 1   
    10     4     6 1   
    11     4    16 1   
    12     5    17 1   
    13     6     7 1   
    14     6    18 1   
    15     6    19 1   
    16     7     8 1   
    17     7    11 1   
    18     7    20 1   
    19     8     9 1   
    20     8    10 1   
@<TRIPOS>SUBSTRUCTURE
     1 GCT         1 TEMP              0 ****  ****    0 ROOT
