@<TRIPOS>MOLECULE
GCU
   22    22     1     0     0
SMALL
abcg2


@<TRIPOS>ATOM
      1 C1          39.7600    20.4840    29.3670 c6         1 GCU       0.382300
      2 C2          39.1740    20.3820    30.7730 c6         1 GCU       0.154300
      3 C3          40.2350    20.6960    31.8190 c6         1 GCU       0.127300
      4 C4          41.4390    19.7900    31.6050 c6         1 GCU       0.139300
      5 C5          41.9290    19.9270    30.1550 c6         1 GCU      -0.016700
      6 C6          43.1240    18.9940    29.8690 c          1 GCU       0.731000
      7 O1          40.0480    21.8190    29.0970 oh         1 GCU      -0.734000
      8 O2          38.0580    21.2310    30.8570 oh         1 GCU      -0.719000
      9 O3          39.6370    20.5070    33.0830 oh         1 GCU      -0.752000
     10 O4          42.4470    20.1360    32.5160 oh         1 GCU      -0.792000
     11 O5          40.8800    19.6520    29.2490 os         1 GCU      -0.442000
     12 O6A         43.9950    18.9840    30.7820 o          1 GCU      -0.704500
     13 O6B         43.1600    18.3690    28.8080 o          1 GCU      -0.704500
     14 H1          39.0390    20.0840    28.6420 h2         1 GCU       0.050700
     15 H2          38.8740    19.3310    30.9050 h1         1 GCU       0.044700
     16 H3          40.5640    21.7400    31.7000 h1         1 GCU       0.055700
     17 H4          41.1070    18.7470    31.7550 h1         1 GCU       0.035700
     18 H5          42.2920    20.9590    30.0220 h1         1 GCU       0.041700
     19 HO1         40.2410    21.9120    28.1580 ho         1 GCU       0.503000
     20 HO2         37.6830    21.1330    31.7380 ho         1 GCU       0.506000
     21 HO3         40.2450    20.8260    33.7570 ho         1 GCU       0.516000
     22 HO4         43.2540    19.7390    32.1080 ho         1 GCU       0.578000
@<TRIPOS>BOND
     1     1     2 1   
     2     1     7 1   
     3     1    11 1   
     4     1    14 1   
     5     2     3 1   
     6     2     8 1   
     7     2    15 1   
     8     3     4 1   
     9     3     9 1   
    10     3    16 1   
    11     4     5 1   
    12     4    10 1   
    13     4    17 1   
    14     5     6 1   
    15     5    11 1   
    16     5    18 1   
    17     6    12 1   
    18     6    13 1   
    19     7    19 1   
    20     8    20 1   
    21     9    21 1   
    22    10    22 1   
@<TRIPOS>SUBSTRUCTURE
     1 GCU         1 TEMP              0 ****  ****    0 ROOT
