@<TRIPOS>MOLECULE
GCU
   22    22     1     0     0
SMALL
No Charge or Current Charge


@<TRIPOS>ATOM
      1 C1          39.7400    20.5560    29.2980 c6         1 GCU       0.382300
      2 C2          39.0860    20.3990    30.7230 c6         1 GCU       0.154300
      3 C3          40.1580    20.6470    31.8210 c6         1 GCU       0.127300
      4 C4          41.3650    19.6830    31.6130 c6         1 GCU       0.139300
      5 C5          41.9460    19.8580    30.1770 c6         1 GCU      -0.016700
      6 C6          43.1660    18.8970    29.9600 c          1 GCU       0.731000
      7 O1          40.2110    21.8790    29.0280 oh         1 GCU      -0.734000
      8 O2          37.9470    21.2610    30.9500 oh         1 GCU      -0.719000
      9 O3          39.6020    20.4630    33.1390 oh         1 GCU      -0.752000
     10 O4          42.3540    19.9060    32.6400 oh         1 GCU      -0.792000
     11 O5          40.8760    19.6740    29.1830 os         1 GCU      -0.442000
     12 O6A         44.2560    19.4540    29.8940 o          1 GCU      -0.704500
     13 O6B         42.9670    17.8880    29.2930 o          1 GCU      -0.704500
     14 H1          38.9940    20.2730    28.5380 h2         1 GCU       0.050700
     15 H2          38.7610    19.3520    30.8090 h1         1 GCU       0.044700
     16 H3          40.5260    21.6800    31.7160 h1         1 GCU       0.055700
     17 H4          40.9920    18.6500    31.6940 h1         1 GCU       0.035700
     18 H5          42.3360    20.8820    30.0780 h1         1 GCU       0.041700
     19 HO1         40.7350    21.7860    28.2040 ho         1 GCU       0.503000
     20 HO2         37.9170    21.3480    31.9330 ho         1 GCU       0.506000
     21 HO3         40.3770    20.1940    33.6920 ho         1 GCU       0.516000
     22 HO4         42.8730    20.7100    32.3850 ho         1 GCU       0.578000
@<TRIPOS>BOND
     1     1     2 1   
     2     1     7 1   
     3     1    11 1   
     4     1    14 1   
     5     2     3 1   
     6     2     8 1   
     7     2    15 1   
     8     3     4 1   
     9     3     9 1   
    10     3    16 1   
    11     4     5 1   
    12     4    10 1   
    13     4    17 1   
    14     5     6 1   
    15     5    11 1   
    16     5    18 1   
    17     6    12 1   
    18     6    13 1   
    19     7    19 1   
    20     8    20 1   
    21     9    21 1   
    22    10    22 1   
@<TRIPOS>SUBSTRUCTURE
     1 GCU         1 TEMP              0 ****  ****    0 ROOT
