@<TRIPOS>MOLECULE
GCV
   25    25     1     0     0
SMALL
No Charge or Current Charge


@<TRIPOS>ATOM
      1 C7           5.4810   -11.7140     7.1000 c3         1 GCV       0.155900
      2 C1           9.3030   -12.9130     3.4710 c6         1 GCV       0.383300
      3 C2           9.8510   -12.1720     4.7470 c6         1 GCV       0.157300
      4 C3           8.9630   -12.5230     5.9700 c6         1 GCV       0.117300
      5 C4           7.4780   -12.1510     5.6860 c6         1 GCV       0.123300
      6 C5           7.0010   -12.8970     4.3930 c6         1 GCV       0.012300
      7 C6           5.5050   -12.5840     4.0480 c          1 GCV       0.732000
      8 O1           9.3790   -14.3380     3.5580 oh         1 GCV      -0.736000
      9 O2          11.2320   -12.4640     5.0530 oh         1 GCV      -0.717000
     10 O3           9.4400   -11.8630     7.1630 oh         1 GCV      -0.750000
     11 O4           6.7010   -12.4490     6.8770 os         1 GCV      -0.462000
     12 O5           7.9130   -12.5810     3.2790 os         1 GCV      -0.449000
     13 H71          5.0840   -11.9400     8.0990 h1         1 GCV       0.024700
     14 H72          5.6610   -10.6330     7.0450 h1         1 GCV       0.024700
     15 H73          4.7060   -11.9770     6.3730 h1         1 GCV       0.024700
     16 H1           9.8730   -12.5700     2.5940 h2         1 GCV       0.048700
     17 H2           9.7480   -11.0920     4.5590 h1         1 GCV       0.047700
     18 H3           9.0040   -13.6130     6.1190 h1         1 GCV       0.059700
     19 H4           7.4260   -11.0670     5.5000 h1         1 GCV       0.067700
     20 H5           7.0490   -13.9780     4.5860 h1         1 GCV       0.047700
     21 HO1          8.8660   -14.6560     2.7840 ho         1 GCV       0.503000
     22 HO2         11.2850   -12.3080     6.0270 ho         1 GCV       0.504000
     23 HO3          8.6800   -11.8990     7.7930 ho         1 GCV       0.508000
     24 O6A          4.7350   -13.5290     4.1610 o          1 GCV      -0.714000
     25 O6B          5.3000   -11.7480     3.1740 o          1 GCV      -0.714000
@<TRIPOS>BOND
     1     1    11 1   
     2     1    13 1   
     3     1    14 1   
     4     1    15 1   
     5     2     3 1   
     6     2     8 1   
     7     2    12 1   
     8     2    16 1   
     9     3     4 1   
    10     3     9 1   
    11     3    17 1   
    12     4     5 1   
    13     4    10 1   
    14     4    18 1   
    15     5     6 1   
    16     5    11 1   
    17     5    19 1   
    18     6     7 1   
    19     6    12 1   
    20     6    20 1   
    21     7    24 1   
    22     7    25 1   
    23     8    21 1   
    24     9    22 1   
    25    10    23 1   
@<TRIPOS>SUBSTRUCTURE
     1 GCV         1 TEMP              0 ****  ****    0 ROOT
