@<TRIPOS>MOLECULE
GCV
   25    25     1     0     0
SMALL
abcg2


@<TRIPOS>ATOM
      1 C7           5.6250   -11.6510     7.1240 c3         1 GCV       0.155900
      2 C1           9.2270   -12.9650     3.5480 c6         1 GCV       0.383300
      3 C2           9.6960   -12.1970     4.7810 c6         1 GCV       0.157300
      4 C3           8.8090   -12.5160     5.9780 c6         1 GCV       0.117300
      5 C4           7.3570   -12.2440     5.6060 c6         1 GCV       0.123300
      6 C5           6.9760   -13.0200     4.3460 c6         1 GCV       0.012300
      7 C6           5.5490   -12.6540     3.8700 c          1 GCV       0.732000
      8 O1           9.4840   -14.3190     3.7450 oh         1 GCV      -0.736000
      9 O2          11.0480   -12.4960     5.0090 oh         1 GCV      -0.717000
     10 O3           9.2410   -11.7050     7.0480 oh         1 GCV      -0.750000
     11 O4           6.5290   -12.6340     6.6810 os         1 GCV      -0.462000
     12 O5           7.8780   -12.6940     3.2950 os         1 GCV      -0.449000
     13 H71          5.0390   -12.0840     7.9340 h1         1 GCV       0.024700
     14 H72          6.1390   -10.7640     7.5080 h1         1 GCV       0.024700
     15 H73          4.9360   -11.3290     6.3370 h1         1 GCV       0.024700
     16 H1           9.7570   -12.5910     2.6630 h2         1 GCV       0.048700
     17 H2           9.5670   -11.1290     4.5460 h1         1 GCV       0.047700
     18 H3           8.9160   -13.5810     6.2330 h1         1 GCV       0.059700
     19 H4           7.2510   -11.1700     5.4010 h1         1 GCV       0.067700
     20 H5           7.0210   -14.0940     4.5670 h1         1 GCV       0.047700
     21 HO1          9.3560   -14.7840     2.9110 ho         1 GCV       0.503000
     22 HO2         11.3440   -11.9660     5.7560 ho         1 GCV       0.504000
     23 HO3          8.8360   -12.0320     7.8580 ho         1 GCV       0.508000
     24 O6A          4.6900   -13.5510     3.9500 o          1 GCV      -0.714000
     25 O6B          5.3940   -11.4870     3.4650 o          1 GCV      -0.714000
@<TRIPOS>BOND
     1     1    11 1   
     2     1    13 1   
     3     1    14 1   
     4     1    15 1   
     5     2     3 1   
     6     2     8 1   
     7     2    12 1   
     8     2    16 1   
     9     3     4 1   
    10     3     9 1   
    11     3    17 1   
    12     4     5 1   
    13     4    10 1   
    14     4    18 1   
    15     5     6 1   
    16     5    11 1   
    17     5    19 1   
    18     6     7 1   
    19     6    12 1   
    20     6    20 1   
    21     7    24 1   
    22     7    25 1   
    23     8    21 1   
    24     9    22 1   
    25    10    23 1   
@<TRIPOS>SUBSTRUCTURE
     1 GCV         1 TEMP              0 ****  ****    0 ROOT
