@<TRIPOS>MOLECULE
GCW
   25    25     1     0     0
SMALL
No Charge or Current Charge


@<TRIPOS>ATOM
      1 O1          22.1860    33.0590   152.7340 oh         1 GCW      -0.703000
      2 C1          22.7010    34.1920   153.4090 c6         1 GCW       0.392300
      3 C2          24.1990    34.0020   153.8450 c6         1 GCW       0.148300
      4 C3          24.7090    35.3560   154.4050 c6         1 GCW       0.114300
      5 C4          24.5370    36.4910   153.3530 c6         1 GCW       0.120300
      6 C5          23.0310    36.5620   152.9250 c6         1 GCW       0.018300
      7 C6          22.7590    37.7000   151.8810 c          1 GCW       0.733000
      8 O2          24.3950    32.9800   154.8500 oh         1 GCW      -0.722000
      9 O3          26.0810    35.2550   154.8380 oh         1 GCW      -0.743000
     10 O4          25.0620    37.7200   153.9240 os         1 GCW      -0.464000
     11 O5          22.6070    35.2430   152.4440 os         1 GCW      -0.451000
     12 O6A         22.0720    38.6280   152.2890 o          1 GCW      -0.709000
     13 O6B         22.6720    37.3640   150.7050 o          1 GCW      -0.709000
     14 HO1         21.8320    33.4520   151.9070 ho         1 GCW       0.506000
     15 H1          22.0720    34.4300   154.2800 h2         1 GCW       0.009700
     16 H2          24.7850    33.7600   152.9460 h1         1 GCW       0.064700
     17 H3          24.0800    35.6180   155.2700 h1         1 GCW       0.038700
     18 H4          25.1390    36.2330   152.4680 h1         1 GCW       0.073700
     19 H5          22.4320    36.8020   153.8150 h1         1 GCW       0.030700
     20 H71         24.7050    39.2100   152.4720 h1         1 GCW       0.026367
     21 H72         26.0280    39.5430   153.5950 h1         1 GCW       0.026367
     22 H73         26.2510    38.3410   152.3080 h1         1 GCW       0.026367
     23 HO2         25.2320    33.2570   155.2980 ho         1 GCW       0.505000
     24 HO3         26.3930    36.1900   154.9130 ho         1 GCW       0.509000
     25 C7          25.5280    38.7480   153.0270 c3         1 GCW       0.156900
@<TRIPOS>BOND
     1     1     2 1   
     2     1    14 1   
     3     2     3 1   
     4     2    11 1   
     5     2    15 1   
     6     3     4 1   
     7     3     8 1   
     8     3    16 1   
     9     4     5 1   
    10     4     9 1   
    11     4    17 1   
    12     5     6 1   
    13     5    10 1   
    14     5    18 1   
    15     6     7 1   
    16     6    11 1   
    17     6    19 1   
    18     7    12 1   
    19     7    13 1   
    20     8    23 1   
    21     9    24 1   
    22    10    25 1   
    23    20    25 1   
    24    21    25 1   
    25    22    25 1   
@<TRIPOS>SUBSTRUCTURE
     1 GCW         1 TEMP              0 ****  ****    0 ROOT
