@<TRIPOS>MOLECULE
GCW
   25    25     1     0     0
SMALL
bcc


@<TRIPOS>ATOM
      1 O1          22.3830    33.0690   152.7370 oh         1 GCW      -0.580800
      2 C1          22.7740    34.2530   153.3270 c6         1 GCW       0.345900
      3 C2          24.2320    34.1290   153.7570 c6         1 GCW       0.125100
      4 C3          24.7080    35.4700   154.3000 c6         1 GCW       0.091100
      5 C4          24.4320    36.5860   153.2990 c6         1 GCW       0.097100
      6 C5          22.9520    36.5660   152.9080 c6         1 GCW      -0.004900
      7 C6          22.6360    37.6370   151.8370 c          1 GCW       0.943600
      8 O2          24.3210    33.1150   154.7250 oh         1 GCW      -0.599800
      9 O3          26.0790    35.3420   154.5970 oh         1 GCW      -0.620800
     10 O4          24.7780    37.8130   153.9010 os         1 GCW      -0.417600
     11 O5          22.6420    35.2870   152.3850 os         1 GCW      -0.404600
     12 O6A         22.0100    38.6380   152.2290 o          1 GCW      -0.814300
     13 O6B         23.0630    37.4020   150.6920 o          1 GCW      -0.814300
     14 HO1         21.4210    33.0430   152.6880 ho         1 GCW       0.407000
     15 H1          22.1570    34.4870   154.2140 h2         1 GCW       0.009700
     16 H2          24.8270    33.8820   152.8620 h1         1 GCW       0.064700
     17 H3          24.1330    35.6890   155.2150 h1         1 GCW       0.038700
     18 H4          25.0310    36.4080   152.3940 h1         1 GCW       0.073700
     19 H5          22.3500    36.7600   153.8090 h1         1 GCW       0.030700
     20 H71         25.1070    38.9280   152.1640 h1         1 GCW       0.026367
     21 H72         25.7500    39.5720   153.6800 h1         1 GCW       0.026367
     22 H73         26.5530    38.2070   152.8880 h1         1 GCW       0.026367
     23 HO2         25.2280    33.0950   155.0480 ho         1 GCW       0.406000
     24 HO3         26.3430    36.0970   155.1320 ho         1 GCW       0.410000
     25 C7          25.5800    38.6580   153.1120 c3         1 GCW       0.133700
@<TRIPOS>BOND
     1     1     2 1   
     2     1    14 1   
     3     2     3 1   
     4     2    11 1   
     5     2    15 1   
     6     3     4 1   
     7     3     8 1   
     8     3    16 1   
     9     4     5 1   
    10     4     9 1   
    11     4    17 1   
    12     5     6 1   
    13     5    10 1   
    14     5    18 1   
    15     6     7 1   
    16     6    11 1   
    17     6    19 1   
    18     7    12 1   
    19     7    13 1   
    20     8    23 1   
    21     9    24 1   
    22    10    25 1   
    23    20    25 1   
    24    21    25 1   
    25    22    25 1   
@<TRIPOS>SUBSTRUCTURE
     1 GCW         1 TEMP              0 ****  ****    0 ROOT
