@<TRIPOS>MOLECULE
GCX
   41    42     1     0     0
SMALL
No Charge or Current Charge


@<TRIPOS>ATOM
      1 O21         -0.7400     2.8350     1.0350 oh         1 GCX      -0.693000
      2 C21         -1.5560     1.6410     0.9330 c6         1 GCX       0.143300
      3 C11         -2.8980     1.9330     0.1860 c6         1 GCX       0.357300
      4 O51         -3.7070     0.7580     0.1480 os         1 GCX      -0.469000
      5 C51         -3.1100    -0.3450    -0.5840 c6         1 GCX       0.155300
      6 C6          -4.1530    -1.5110    -0.6480 c3         1 GCX       0.170600
      7 O6          -5.4180    -1.1160    -1.2160 oh         1 GCX      -0.707000
      8 C31         -0.8170     0.4770     0.2000 c6         1 GCX       0.180300
      9 C41         -1.7670    -0.7720     0.0950 c6         1 GCX       0.115300
     10 O41         -1.1580    -1.8740    -0.6130 oh         1 GCX      -0.714000
     11 O1           0.4440     0.1740     0.8610 os         1 GCX      -0.447000
     12 C1           1.5020    -0.3330     0.0190 c6         1 GCX       0.360300
     13 C2           2.6730    -0.8400     0.9300 c6         1 GCX       0.167300
     14 O2           3.0810     0.2040     1.8540 oh         1 GCX      -0.692000
     15 C3           3.8700    -1.2910     0.0250 c6         1 GCX       0.172300
     16 O3           3.5020    -2.4490    -0.7530 oh         1 GCX      -0.665000
     17 O5           1.9770     0.7580    -0.8030 os         1 GCX      -0.447000
     18 C5           3.0390     0.3750    -1.7090 c6         1 GCX       0.135600
     19 C4           4.2930    -0.1090    -0.9140 c6         1 GCX       0.110300
     20 O4           4.8270     0.9680    -0.1230 oh         1 GCX      -0.683000
     21 O7          -3.6680     2.8930     0.8840 oh         1 GCX      -0.645000
     22 H1          -1.3540     3.5530     1.3200 ho         1 GCX       0.517000
     23 H2          -1.8120     1.2880     1.9440 h1         1 GCX       0.063700
     24 H3          -2.7000     2.2810    -0.8400 h2         1 GCX       0.030700
     25 H4          -2.9060    -0.0160    -1.6140 h1         1 GCX       0.060700
     26 H5          -3.7210    -2.3290    -1.2400 h1         1 GCX       0.028200
     27 H6          -4.3020    -1.8920     0.3720 h1         1 GCX       0.028200
     28 H7          -6.0180    -1.8960    -1.1490 ho         1 GCX       0.505000
     29 H8          -0.6000     0.8280    -0.8200 h1         1 GCX       0.070700
     30 H9          -2.0100    -1.0890     1.1210 h1         1 GCX       0.055700
     31 H10         -0.8370    -2.5150     0.0640 ho         1 GCX       0.511000
     32 H11          1.1450    -1.1550    -0.6170 h2         1 GCX       0.050700
     33 H12          2.3160    -1.7140     1.4940 h1         1 GCX       0.048700
     34 H13          2.2360     0.6160     2.1600 ho         1 GCX       0.520000
     35 H14          4.7190    -1.5440     0.6790 h1         1 GCX       0.071700
     36 H15          4.3330    -2.8250    -1.1220 ho         1 GCX       0.449000
     37 H16          2.6780    -0.4200    -2.3790 h1         1 GCX       0.049700
     38 H17          3.3060     1.2400    -2.3330 h1         1 GCX       0.049700
     39 H18          5.0550    -0.4590    -1.6250 h1         1 GCX       0.020700
     40 H19          4.2590     0.9740     0.6940 ho         1 GCX       0.502000
     41 H20         -4.5860     2.5640     0.7860 ho         1 GCX       0.464000
@<TRIPOS>BOND
     1     1     2 1   
     2     1    22 1   
     3     2     3 1   
     4     2     8 1   
     5     2    23 1   
     6     3     4 1   
     7     3    21 1   
     8     3    24 1   
     9     4     5 1   
    10     5     6 1   
    11     5     9 1   
    12     5    25 1   
    13     6     7 1   
    14     6    26 1   
    15     6    27 1   
    16     7    28 1   
    17     8     9 1   
    18     8    11 1   
    19     8    29 1   
    20     9    10 1   
    21     9    30 1   
    22    10    31 1   
    23    11    12 1   
    24    12    13 1   
    25    12    17 1   
    26    12    32 1   
    27    13    14 1   
    28    13    15 1   
    29    13    33 1   
    30    14    34 1   
    31    15    16 1   
    32    15    19 1   
    33    15    35 1   
    34    16    36 1   
    35    17    18 1   
    36    18    19 1   
    37    18    37 1   
    38    18    38 1   
    39    19    20 1   
    40    19    39 1   
    41    20    40 1   
    42    21    41 1   
@<TRIPOS>SUBSTRUCTURE
     1 GCX         1 TEMP              0 ****  ****    0 ROOT
