@<TRIPOS>MOLECULE
GCX
   41    42     1     0     0
SMALL
bcc


@<TRIPOS>ATOM
      1 O21         -0.6540     2.6800     0.4070 oh         1 GCX      -0.570800
      2 C21         -1.4870     1.5830     0.6640 c6         1 GCX       0.120100
      3 C11         -2.8770     1.7880     0.0600 c6         1 GCX       0.310900
      4 O51         -3.6690     0.6480     0.2780 os         1 GCX      -0.422600
      5 C51         -3.1790    -0.4980    -0.3860 c6         1 GCX       0.132100
      6 C6          -4.1720    -1.6200    -0.1780 c3         1 GCX       0.147400
      7 O6          -5.3850    -1.2800    -0.8070 oh         1 GCX      -0.584800
      8 C31         -0.8580     0.3450     0.0450 c6         1 GCX       0.157100
      9 C41         -1.7920    -0.8560     0.1630 c6         1 GCX       0.092100
     10 O41         -1.2250    -1.9270    -0.5540 oh         1 GCX      -0.591800
     11 O1           0.3590     0.0580     0.7040 os         1 GCX      -0.400600
     12 C1           1.4560    -0.2130    -0.0910 c6         1 GCX       0.313900
     13 C2           2.4330    -1.0580     0.7290 c6         1 GCX       0.144100
     14 O2           2.7340    -0.4660     1.9640 oh         1 GCX      -0.569800
     15 C3           3.7360    -1.2480    -0.0510 c6         1 GCX       0.149100
     16 O3           3.4330    -2.1500    -1.0920 oh         1 GCX      -0.602800
     17 O5           2.0290     1.0100    -0.4710 os         1 GCX      -0.400600
     18 C5           3.1370     0.8230    -1.3230 c6         1 GCX       0.112400
     19 C4           4.2640     0.0710    -0.6300 c6         1 GCX       0.087100
     20 O4           4.8430     0.8060     0.4190 oh         1 GCX      -0.560800
     21 O7          -3.4690     2.8610     0.6930 oh         1 GCX      -0.582800
     22 H1          -1.0190     3.4450     0.8640 ho         1 GCX       0.418000
     23 H2          -1.6120     1.4130     1.7460 h1         1 GCX       0.063700
     24 H3          -2.7750     1.9640    -1.0250 h2         1 GCX       0.030700
     25 H4          -3.0860    -0.3010    -1.4670 h1         1 GCX       0.060700
     26 H5          -3.7470    -2.5390    -0.5950 h1         1 GCX       0.028200
     27 H6          -4.3030    -1.7840     0.9010 h1         1 GCX       0.028200
     28 H7          -6.0020    -2.0050    -0.6750 ho         1 GCX       0.406000
     29 H8          -0.6790     0.5440    -1.0210 h1         1 GCX       0.070700
     30 H9          -1.8980    -1.1050     1.2280 h1         1 GCX       0.055700
     31 H10         -1.3180    -2.7330    -0.0410 ho         1 GCX       0.412000
     32 H11          1.1670    -0.7780    -0.9910 h2         1 GCX       0.050700
     33 H12          1.9760    -2.0500     0.8650 h1         1 GCX       0.048700
     34 H13          1.9080    -0.3440     2.4440 ho         1 GCX       0.421000
     35 H14          4.4940    -1.6660     0.6270 h1         1 GCX       0.071700
     36 H15          4.2290    -2.2940    -1.6140 ho         1 GCX       0.410000
     37 H16          2.8450     0.2750    -2.2310 h1         1 GCX       0.049700
     38 H17          3.4740     1.8120    -1.6400 h1         1 GCX       0.049700
     39 H18          5.0180    -0.1700    -1.3960 h1         1 GCX       0.020700
     40 H19          5.2450     1.5970     0.0460 ho         1 GCX       0.403000
     41 H20         -4.1600     3.2270     0.1320 ho         1 GCX       0.425000
@<TRIPOS>BOND
     1     1     2 1   
     2     1    22 1   
     3     2     3 1   
     4     2     8 1   
     5     2    23 1   
     6     3     4 1   
     7     3    21 1   
     8     3    24 1   
     9     4     5 1   
    10     5     6 1   
    11     5     9 1   
    12     5    25 1   
    13     6     7 1   
    14     6    26 1   
    15     6    27 1   
    16     7    28 1   
    17     8     9 1   
    18     8    11 1   
    19     8    29 1   
    20     9    10 1   
    21     9    30 1   
    22    10    31 1   
    23    11    12 1   
    24    12    13 1   
    25    12    17 1   
    26    12    32 1   
    27    13    14 1   
    28    13    15 1   
    29    13    33 1   
    30    14    34 1   
    31    15    16 1   
    32    15    19 1   
    33    15    35 1   
    34    16    36 1   
    35    17    18 1   
    36    18    19 1   
    37    18    37 1   
    38    18    38 1   
    39    19    20 1   
    40    19    39 1   
    41    20    40 1   
    42    21    41 1   
@<TRIPOS>SUBSTRUCTURE
     1 GCX         1 TEMP              0 ****  ****    0 ROOT
