@<TRIPOS>MOLECULE
GCY
  150   150     1     0     0
SMALL
abcg2


@<TRIPOS>ATOM
      1 C1           7.9460    16.6360     0.4580 c3         1 GCY      -0.088100
      2 N1           5.1100    -1.9670    -0.0790 ns         1 GCY      -0.503900
      3 O1           8.7740    -2.3890    -0.0470 oh         1 GCY      -0.638000
      4 C2           8.0590    15.2800     1.1410 c3         1 GCY      -0.075400
      5 O2           6.0460    -4.5690     0.1110 os         1 GCY      -0.463000
      6 C3           8.0550    14.1200     0.1510 c3         1 GCY      -0.076400
      7 O3           9.4880    -7.4820     1.8890 oh         1 GCY      -0.717000
      8 C4           8.1480    12.7530     0.8180 c3         1 GCY      -0.074400
      9 O4           7.3020    -6.4120     0.4420 os         1 GCY      -0.450000
     10 C5           8.1490    11.6020    -0.1800 c3         1 GCY      -0.074400
     11 O5           7.0700    -8.6550    -1.3400 oh         1 GCY      -0.708000
     12 C6           8.2300    10.2290     0.4750 c3         1 GCY      -0.074400
     13 C7           8.2310     9.0860    -0.5320 c3         1 GCY      -0.074400
     14 C8           8.2980     7.7060     0.1100 c3         1 GCY      -0.074400
     15 C9           8.2970     6.5750    -0.9100 c3         1 GCY      -0.074400
     16 C10          8.3530     5.1870    -0.2820 c3         1 GCY      -0.074400
     17 C11          8.3450     4.0700    -1.3170 c3         1 GCY      -0.074400
     18 C12          8.3960     2.6740    -0.7090 c3         1 GCY      -0.073400
     19 C13          8.3530     1.5740    -1.7700 c3         1 GCY      -0.044200
     20 C14          8.4580     0.2000    -1.1870 c2         1 GCY      -0.197200
     21 C15          7.4630    -0.6810    -1.1750 c2         1 GCY      -0.261200
     22 C16          7.5190    -2.0610    -0.5810 c3         1 GCY       0.194500
     23 O16          4.3330    -8.9090    -0.9350 oh         1 GCY      -0.667000
     24 C17          6.4100    -2.2500     0.4830 c3         1 GCY       0.080700
     25 O17          3.7390    -6.1910    -0.2920 oh         1 GCY      -0.727000
     26 C18          6.4240    -3.6360     1.1070 c3         1 GCY       0.153600
     27 O18          4.5350    -0.2760     1.3080 o          1 GCY      -0.605100
     28 C19          6.0040    -5.8860     0.5150 c6         1 GCY       0.371300
     29 C20          7.3720    -7.7630     0.8520 c6         1 GCY       0.182300
     30 C21          8.8260    -8.1830     0.8620 c3         1 GCY       0.172600
     31 C22          6.5170    -8.6500    -0.0470 c6         1 GCY       0.145300
     32 C35          5.0840    -8.1220    -0.0440 c6         1 GCY       0.141300
     33 C36          5.0650    -6.6470    -0.4170 c6         1 GCY       0.104300
     34 C38          2.9860    -0.8740    -0.4180 c3         1 GCY      -0.157400
     35 C39          1.7570    -0.8140     0.4840 c3         1 GCY      -0.067400
     36 C40          0.4700    -0.6910    -0.3200 c3         1 GCY      -0.076400
     37 C41         -0.7810    -0.6520     0.5490 c3         1 GCY      -0.074400
     38 C42         -2.0650    -0.5620    -0.2670 c3         1 GCY      -0.074400
     39 C43         -3.3270    -0.5340     0.5870 c3         1 GCY      -0.074400
     40 C44         -4.6040    -0.4740    -0.2430 c3         1 GCY      -0.074400
     41 CAJ         -5.8750    -0.4520     0.5970 c3         1 GCY      -0.074400
     42 CAK         -7.1450    -0.4140    -0.2440 c3         1 GCY      -0.074400
     43 CAL         -8.4230    -0.3950     0.5850 c3         1 GCY      -0.074400
     44 CAM         -9.6870    -0.3720    -0.2660 c3         1 GCY      -0.074400
     45 CAN        -10.9700    -0.3540     0.5550 c3         1 GCY      -0.074400
     46 CAO        -12.2290    -0.3420    -0.3030 c3         1 GCY      -0.074400
     47 CAP        -13.5170    -0.3260     0.5120 c3         1 GCY      -0.074400
     48 CAQ        -14.7720    -0.3140    -0.3520 c3         1 GCY      -0.074400
     49 CAR        -16.0630    -0.3000     0.4570 c3         1 GCY      -0.074400
     50 CAS        -17.3160    -0.2930    -0.4110 c3         1 GCY      -0.074400
     51 CAT        -18.6090    -0.2810     0.3940 c3         1 GCY      -0.074400
     52 CAU        -19.8590    -0.2750    -0.4780 c3         1 GCY      -0.074400
     53 CAV        -21.1550    -0.2650     0.3230 c3         1 GCY      -0.074400
     54 CAW        -22.4010    -0.2610    -0.5530 c3         1 GCY      -0.075400
     55 CAX        -23.7010    -0.2520     0.2420 c3         1 GCY      -0.075400
     56 CAY        -24.9360    -0.2480    -0.6490 c3         1 GCY      -0.088100
     57 H1           7.0180    16.7120    -0.1120 hc         1 GCY       0.031367
     58 H1A          7.9590    17.4540     1.1800 hc         1 GCY       0.031367
     59 H1B          8.7720    16.7970    -0.2380 hc         1 GCY       0.031367
     60 HN1          4.8080    -2.5360    -0.8540 hn         1 GCY       0.316500
     61 HO1          8.9830    -1.7610     0.6540 ho         1 GCY       0.439000
     62 H2           8.9750    15.2420     1.7380 hc         1 GCY       0.036700
     63 H2A          7.2320    15.1550     1.8470 hc         1 GCY       0.036700
     64 H3           7.1430    14.1660    -0.4550 hc         1 GCY       0.036700
     65 H3A          8.8880    14.2410    -0.5500 hc         1 GCY       0.036700
     66 HO3         10.4210    -7.7100     1.8500 ho         1 GCY       0.506000
     67 H4           9.0580    12.7070     1.4280 hc         1 GCY       0.036700
     68 H4A          7.3110    12.6310     1.5140 hc         1 GCY       0.036700
     69 H5           7.2420    11.6560    -0.7940 hc         1 GCY       0.036700
     70 H5A          8.9890    11.7230    -0.8730 hc         1 GCY       0.036700
     71 HO5          6.4700    -9.1380    -1.9180 ho         1 GCY       0.521000
     72 H6           9.1350    10.1720     1.0910 hc         1 GCY       0.037200
     73 H6A          7.3880    10.1050     1.1650 hc         1 GCY       0.037200
     74 H7           7.3300     9.1520    -1.1540 hc         1 GCY       0.036700
     75 H7A          9.0780     9.2080    -1.2170 hc         1 GCY       0.036700
     76 H8           9.1980     7.6370     0.7320 hc         1 GCY       0.037700
     77 H8A          7.4500     7.5820     0.7930 hc         1 GCY       0.037700
     78 H9           7.4000     6.6530    -1.5350 hc         1 GCY       0.036700
     79 H9A          9.1480     6.6990    -1.5890 hc         1 GCY       0.036700
     80 H10          9.2510     5.1040     0.3400 hc         1 GCY       0.038700
     81 H10A         7.5020     5.0610     0.3970 hc         1 GCY       0.038700
     82 H11          7.4470     4.1590    -1.9400 hc         1 GCY       0.036200
     83 H11A         9.1950     4.1980    -1.9960 hc         1 GCY       0.036200
     84 H12          9.3040     2.5700    -0.1050 hc         1 GCY       0.042700
     85 H12A         7.5560     2.5400    -0.0200 hc         1 GCY       0.042700
     86 H13          7.4280     1.6640    -2.3470 hc         1 GCY       0.043700
     87 H13A         9.1770     1.7330    -2.4740 hc         1 GCY       0.043700
     88 H14          9.4190    -0.0540    -0.7480 ha         1 GCY       0.171000
     89 H15          6.5170    -0.4070    -1.6320 ha         1 GCY       0.175000
     90 H16          7.3430    -2.7840    -1.3860 h1         1 GCY       0.091700
     91 HO16         3.4610    -8.5120    -1.0350 ho         1 GCY       0.469000
     92 H17          6.5820    -1.5270     1.2840 h1         1 GCY       0.089700
     93 HO17         3.6710    -5.3320    -0.7200 ho         1 GCY       0.519000
     94 H18          5.7070    -3.6610     1.9360 h1         1 GCY       0.051700
     95 H18A         7.4130    -3.8610     1.5120 h1         1 GCY       0.051700
     96 H19          5.6280    -5.9650     1.5540 h2         1 GCY       0.030700
     97 H20          6.9770    -7.8690     1.8750 h1         1 GCY       0.047700
     98 H21          9.2750    -7.9860    -0.1180 h1         1 GCY       0.039700
     99 H21A         8.8650    -9.2680     1.0230 h1         1 GCY       0.039700
    100 H22          6.5110    -9.6600     0.3880 h1         1 GCY       0.050700
    101 H35          4.7000    -8.2220     0.9830 h1         1 GCY       0.048700
    102 H36          5.4310    -6.5310    -1.4470 h1         1 GCY       0.075700
    103 H38          3.0500     0.0460    -1.0080 hc         1 GCY       0.055200
    104 H38A         2.8760    -1.6900    -1.1360 hc         1 GCY       0.055200
    105 H39          1.7140    -1.7150     1.1040 hc         1 GCY       0.053700
    106 H39A         1.8460     0.0320     1.1710 hc         1 GCY       0.053700
    107 H40          0.5120     0.2130    -0.9390 hc         1 GCY       0.036200
    108 H40A         0.3960    -1.5320    -1.0180 hc         1 GCY       0.036200
    109 H41         -0.8130    -1.5480     1.1790 hc         1 GCY       0.040200
    110 H41A        -0.7220     0.2000     1.2350 hc         1 GCY       0.040200
    111 H42         -2.0330     0.3340    -0.8960 hc         1 GCY       0.036700
    112 H42A        -2.1150    -1.4130    -0.9550 hc         1 GCY       0.036700
    113 H43         -3.3520    -1.4230     1.2270 hc         1 GCY       0.038200
    114 H43A        -3.2900     0.3260     1.2640 hc         1 GCY       0.038200
    115 H44         -4.5780     0.4130    -0.8850 hc         1 GCY       0.037200
    116 H44A        -4.6350    -1.3360    -0.9200 hc         1 GCY       0.037200
    117 HAJ         -5.8960    -1.3340     1.2470 hc         1 GCY       0.037700
    118 HAJA        -5.8540     0.4160     1.2650 hc         1 GCY       0.037700
    119 HAK         -7.1220     0.4660    -0.8960 hc         1 GCY       0.036700
    120 HAKA        -7.1610    -1.2830    -0.9120 hc         1 GCY       0.036700
    121 HAL         -8.4430    -1.2720     1.2420 hc         1 GCY       0.037700
    122 HALA        -8.4140     0.4790     1.2470 hc         1 GCY       0.037700
    123 HAM         -9.6650     0.5040    -0.9240 hc         1 GCY       0.037200
    124 HAN        -10.9910    -1.2280     1.2170 hc         1 GCY       0.037700
    125 HAO        -12.2080     0.5310    -0.9650 hc         1 GCY       0.036700
    126 HAOA       -12.2280    -1.2190    -0.9600 hc         1 GCY       0.036700
    127 HAP        -13.5400    -1.2000     1.1730 hc         1 GCY       0.037700
    128 HAQ        -14.7490     0.5600    -1.0130 hc         1 GCY       0.036700
    129 HAR        -16.0860    -1.1730     1.1190 hc         1 GCY       0.037200
    130 HARA       -16.0710     0.5770     1.1140 hc         1 GCY       0.037200
    131 HAS        -17.2920     0.5800    -1.0730 hc         1 GCY       0.036700
    132 HASA       -17.3060    -1.1700    -1.0680 hc         1 GCY       0.036700
    133 HAT        -18.6330    -1.1530     1.0570 hc         1 GCY       0.037200
    134 HAU        -19.8340     0.5970    -1.1410 hc         1 GCY       0.036700
    135 HAV        -21.1800    -1.1370     0.9850 hc         1 GCY       0.036700
    136 HAVA       -21.1690     0.6130     0.9790 hc         1 GCY       0.036700
    137 HAY        -25.8570    -0.2420    -0.0640 hc         1 GCY       0.031367
    138 HAYA       -24.9500     0.6310    -1.2960 hc         1 GCY       0.031367
    139 HAYB       -24.9580    -1.1300    -1.2910 hc         1 GCY       0.031367
    140 HAMA        -9.6930    -1.2460    -0.9270 hc         1 GCY       0.037200
    141 HANA       -10.9690     0.5230     1.2120 hc         1 GCY       0.037700
    142 HAPA       -13.5200     0.5510     1.1690 hc         1 GCY       0.037700
    143 HAQA       -14.7670    -1.1910    -1.0100 hc         1 GCY       0.036700
    144 HATA       -18.6200     0.5980     1.0500 hc         1 GCY       0.037200
    145 HAUA       -19.8450    -1.1530    -1.1350 hc         1 GCY       0.036700
    146 HAW        -22.3770     0.6130    -1.2150 hc         1 GCY       0.036700
    147 HAWA       -22.3860    -1.1380    -1.2100 hc         1 GCY       0.036700
    148 HAX        -23.7270    -1.1240     0.9030 hc         1 GCY       0.036700
    149 HAXA       -23.7180     0.6250     0.8980 hc         1 GCY       0.036700
    150 C37          4.2770    -1.0040     0.3600 c          1 GCY       0.602100
@<TRIPOS>BOND
     1     1     4 1   
     2     1    57 1   
     3     1    58 1   
     4     1    59 1   
     5     2    24 1   
     6     2    60 1   
     7     2   150 1   
     8     3    22 1   
     9     3    61 1   
    10     4     6 1   
    11     4    62 1   
    12     4    63 1   
    13     5    26 1   
    14     5    28 1   
    15     6     8 1   
    16     6    64 1   
    17     6    65 1   
    18     7    30 1   
    19     7    66 1   
    20     8    10 1   
    21     8    67 1   
    22     8    68 1   
    23     9    28 1   
    24     9    29 1   
    25    10    12 1   
    26    10    69 1   
    27    10    70 1   
    28    11    31 1   
    29    11    71 1   
    30    12    13 1   
    31    12    72 1   
    32    12    73 1   
    33    13    14 1   
    34    13    74 1   
    35    13    75 1   
    36    14    15 1   
    37    14    76 1   
    38    14    77 1   
    39    15    16 1   
    40    15    78 1   
    41    15    79 1   
    42    16    17 1   
    43    16    80 1   
    44    16    81 1   
    45    17    18 1   
    46    17    82 1   
    47    17    83 1   
    48    18    19 1   
    49    18    84 1   
    50    18    85 1   
    51    19    20 1   
    52    19    86 1   
    53    19    87 1   
    54    20    21 2   
    55    20    88 1   
    56    21    22 1   
    57    21    89 1   
    58    22    24 1   
    59    22    90 1   
    60    23    32 1   
    61    23    91 1   
    62    24    26 1   
    63    24    92 1   
    64    25    33 1   
    65    25    93 1   
    66    26    94 1   
    67    26    95 1   
    68    27   150 2   
    69    28    33 1   
    70    28    96 1   
    71    29    30 1   
    72    29    31 1   
    73    29    97 1   
    74    30    98 1   
    75    30    99 1   
    76    31    32 1   
    77    31   100 1   
    78    32    33 1   
    79    32   101 1   
    80    33   102 1   
    81    34    35 1   
    82    34   103 1   
    83    34   104 1   
    84    34   150 1   
    85    35    36 1   
    86    35   105 1   
    87    35   106 1   
    88    36    37 1   
    89    36   107 1   
    90    36   108 1   
    91    37    38 1   
    92    37   109 1   
    93    37   110 1   
    94    38    39 1   
    95    38   111 1   
    96    38   112 1   
    97    39    40 1   
    98    39   113 1   
    99    39   114 1   
   100    40    41 1   
   101    40   115 1   
   102    40   116 1   
   103    41    42 1   
   104    41   117 1   
   105    41   118 1   
   106    42    43 1   
   107    42   119 1   
   108    42   120 1   
   109    43    44 1   
   110    43   121 1   
   111    43   122 1   
   112    44    45 1   
   113    44   123 1   
   114    44   140 1   
   115    45    46 1   
   116    45   124 1   
   117    45   141 1   
   118    46    47 1   
   119    46   125 1   
   120    46   126 1   
   121    47    48 1   
   122    47   127 1   
   123    47   142 1   
   124    48    49 1   
   125    48   128 1   
   126    48   143 1   
   127    49    50 1   
   128    49   129 1   
   129    49   130 1   
   130    50    51 1   
   131    50   131 1   
   132    50   132 1   
   133    51    52 1   
   134    51   133 1   
   135    51   144 1   
   136    52    53 1   
   137    52   134 1   
   138    52   145 1   
   139    53    54 1   
   140    53   135 1   
   141    53   136 1   
   142    54    55 1   
   143    54   146 1   
   144    54   147 1   
   145    55    56 1   
   146    55   148 1   
   147    55   149 1   
   148    56   137 1   
   149    56   138 1   
   150    56   139 1   
@<TRIPOS>SUBSTRUCTURE
     1 GCY         1 TEMP              0 ****  ****    0 ROOT
