@<TRIPOS>MOLECULE
GCY
  150   150     1     0     0
SMALL
No Charge or Current Charge


@<TRIPOS>ATOM
      1 C1           6.3670    16.4310    -0.0610 c3         1 GCY      -0.088100
      2 N1           5.8370    -1.5320     0.1700 ns         1 GCY      -0.503900
      3 O1           9.1600    -3.0570    -0.6580 oh         1 GCY      -0.638000
      4 C2           6.0890    15.0200     0.4920 c3         1 GCY      -0.075400
      5 O2           5.7580    -4.4220    -0.0600 os         1 GCY      -0.463000
      6 C3           6.7910    13.9050    -0.3130 c3         1 GCY      -0.076400
      7 O3           8.0720    -8.2860     2.1240 oh         1 GCY      -0.717000
      8 C4           6.5160    12.4910     0.2440 c3         1 GCY      -0.074400
      9 O4           6.3240    -6.6500     0.4320 os         1 GCY      -0.450000
     10 C5           7.2210    11.3770    -0.5610 c3         1 GCY      -0.074400
     11 O5           5.4690    -8.9360    -1.3560 oh         1 GCY      -0.708000
     12 C6           6.9510     9.9620    -0.0030 c3         1 GCY      -0.074400
     13 C7           7.6600     8.8510    -0.8070 c3         1 GCY      -0.074400
     14 C8           7.3980     7.4360    -0.2470 c3         1 GCY      -0.074400
     15 C9           8.1140     6.3280    -1.0500 c3         1 GCY      -0.074400
     16 C10          7.8660     4.9120    -0.4850 c3         1 GCY      -0.074400
     17 C11          8.5900     3.8080    -1.2860 c3         1 GCY      -0.074400
     18 C12          8.3570     2.3920    -0.7140 c3         1 GCY      -0.073400
     19 C13          9.0880     1.2910    -1.5090 c3         1 GCY      -0.044200
     20 C14          8.8500    -0.0840    -0.9220 c2         1 GCY      -0.197200
     21 C15          8.1750    -1.0780    -1.5250 c2         1 GCY      -0.261200
     22 C16          7.8970    -2.4470    -0.9370 c3         1 GCY       0.194500
     23 O16          2.7980    -8.1270    -1.3260 oh         1 GCY      -0.667000
     24 C17          7.0300    -2.3820     0.3550 c3         1 GCY       0.080700
     25 O17          3.1120    -5.2900    -0.9300 oh         1 GCY      -0.727000
     26 C18          6.6410    -3.7870     0.8890 c3         1 GCY       0.153600
     27 O18          5.4870    -1.0140     2.3600 o          1 GCY      -0.605100
     28 C19          5.2410    -5.7070     0.3230 c6         1 GCY       0.371300
     29 C20          5.8940    -7.9530     0.9120 c6         1 GCY       0.182300
     30 C21          7.1560    -8.8460     1.1580 c3         1 GCY       0.172600
     31 C22          4.8740    -8.6080    -0.0830 c6         1 GCY       0.145300
     32 C35          3.6900    -7.6180    -0.3180 c6         1 GCY       0.141300
     33 C36          4.2140    -6.2130    -0.7410 c6         1 GCY       0.104300
     34 C38          3.9320    -0.0980     0.7460 c3         1 GCY      -0.157400
     35 C39          2.6070    -0.8220     1.0800 c3         1 GCY      -0.067400
     36 C40          1.3560    -0.0330     0.6350 c3         1 GCY      -0.076400
     37 C41          0.0360    -0.7660     0.9580 c3         1 GCY      -0.074400
     38 C42         -1.2180     0.0190     0.5150 c3         1 GCY      -0.074400
     39 C43         -2.5350    -0.7230     0.8300 c3         1 GCY      -0.074400
     40 C44         -3.7920     0.0590     0.3910 c3         1 GCY      -0.074400
     41 CAJ         -5.1070    -0.6900     0.6990 c3         1 GCY      -0.074400
     42 CAK         -6.3670     0.0910     0.2650 c3         1 GCY      -0.074400
     43 CAL         -7.6790    -0.6640     0.5690 c3         1 GCY      -0.074400
     44 CAM         -8.9410     0.1170     0.1410 c3         1 GCY      -0.074400
     45 CAN        -10.2520    -0.6410     0.4420 c3         1 GCY      -0.074400
     46 CAO        -11.5140     0.1400     0.0180 c3         1 GCY      -0.074400
     47 CAP        -12.8250    -0.6210     0.3170 c3         1 GCY      -0.074400
     48 CAQ        -14.0880     0.1620    -0.1030 c3         1 GCY      -0.074400
     49 CAR        -15.3980    -0.6010     0.1960 c3         1 GCY      -0.074400
     50 CAS        -16.6620     0.1810    -0.2220 c3         1 GCY      -0.074400
     51 CAT        -17.9710    -0.5830     0.0770 c3         1 GCY      -0.074400
     52 CAU        -19.2360     0.1980    -0.3410 c3         1 GCY      -0.074400
     53 CAV        -20.5440    -0.5670    -0.0430 c3         1 GCY      -0.074400
     54 CAW        -21.8100     0.2130    -0.4610 c3         1 GCY      -0.075400
     55 CAX        -23.1180    -0.5520    -0.1640 c3         1 GCY      -0.075400
     56 CAY        -24.3800     0.2250    -0.5820 c3         1 GCY      -0.088100
     57 H1           6.0180    16.5180    -1.0960 hc         1 GCY       0.031367
     58 H1A          5.8490    17.1860     0.5410 hc         1 GCY       0.031367
     59 H1B          7.4410    16.6510    -0.0370 hc         1 GCY       0.031367
     60 HN1          5.4870    -1.3890    -0.7680 hn         1 GCY       0.316500
     61 HO1          9.7670    -2.7590    -1.3690 ho         1 GCY       0.439000
     62 H2           6.4180    14.9760     1.5380 hc         1 GCY       0.036700
     63 H2A          5.0060    14.8430     0.4900 hc         1 GCY       0.036700
     64 H3           6.4590    13.9520    -1.3580 hc         1 GCY       0.036700
     65 H3A          7.8730    14.0880    -0.3130 hc         1 GCY       0.036700
     66 HO3          8.8640    -8.8740     2.1430 ho         1 GCY       0.506000
     67 H4           6.8480    12.4450     1.2890 hc         1 GCY       0.036700
     68 H4A          5.4350    12.3070     0.2430 hc         1 GCY       0.036700
     69 H5           6.8870    11.4220    -1.6060 hc         1 GCY       0.036700
     70 H5A          8.3020    11.5630    -0.5620 hc         1 GCY       0.036700
     71 HO5          4.6990    -8.9860    -1.9740 ho         1 GCY       0.521000
     72 H6           7.2830     9.9190     1.0420 hc         1 GCY       0.037200
     73 H6A          5.8700     9.7750    -0.0040 hc         1 GCY       0.037200
     74 H7           7.3250     8.8920    -1.8510 hc         1 GCY       0.036700
     75 H7A          8.7410     9.0430    -0.8100 hc         1 GCY       0.036700
     76 H8           7.7310     7.3950     0.7980 hc         1 GCY       0.037700
     77 H8A          6.3190     7.2410    -0.2470 hc         1 GCY       0.037700
     78 H9           7.7760     6.3640    -2.0930 hc         1 GCY       0.036700
     79 H9A          9.1930     6.5280    -1.0560 hc         1 GCY       0.036700
     80 H10          8.2000     4.8780     0.5600 hc         1 GCY       0.038700
     81 H10A         6.7880     4.7080    -0.4830 hc         1 GCY       0.038700
     82 H11          8.2490     3.8370    -2.3280 hc         1 GCY       0.036200
     83 H11A         9.6670     4.0190    -1.2950 hc         1 GCY       0.036200
     84 H12          8.6930     2.3650     0.3300 hc         1 GCY       0.042700
     85 H12A         7.2810     2.1760    -0.7090 hc         1 GCY       0.042700
     86 H13          8.7520     1.3230    -2.5530 hc         1 GCY       0.043700
     87 H13A        10.1640     1.5050    -1.5220 hc         1 GCY       0.043700
     88 H14          9.2700    -0.2260     0.0760 ha         1 GCY       0.171000
     89 H15          7.7490    -0.9310    -2.5190 ha         1 GCY       0.175000
     90 H16          7.3500    -3.0410    -1.6850 h1         1 GCY       0.091700
     91 HO16         2.2450    -7.3520    -1.5830 ho         1 GCY       0.469000
     92 H17          7.6490    -1.9070     1.1270 h1         1 GCY       0.089700
     93 HO17         3.5200    -4.3940    -1.0060 ho         1 GCY       0.519000
     94 H18          6.1440    -3.6770     1.8610 h1         1 GCY       0.051700
     95 H18A         7.5480    -4.3850     1.0430 h1         1 GCY       0.051700
     96 H19          4.7380    -5.6130     1.2980 h2         1 GCY       0.030700
     97 H20          5.3960    -7.8170     1.8830 h1         1 GCY       0.047700
     98 H21          7.6680    -8.9920     0.1970 h1         1 GCY       0.039700
     99 H21A         6.8120    -9.8330     1.4960 h1         1 GCY       0.039700
    100 H22          4.4730    -9.5200     0.3850 h1         1 GCY       0.050700
    101 H35          3.1470    -7.5070     0.6330 h1         1 GCY       0.048700
    102 H36          4.7660    -6.3230    -1.6870 h1         1 GCY       0.075700
    103 H38          3.9470     0.8630     1.2750 hc         1 GCY       0.055200
    104 H38A         3.9710     0.0730    -0.3360 hc         1 GCY       0.055200
    105 H39          2.6040    -1.8060     0.5940 hc         1 GCY       0.053700
    106 H39A         2.5550    -1.0010     2.1610 hc         1 GCY       0.053700
    107 H40          1.3550     0.9480     1.1270 hc         1 GCY       0.036200
    108 H40A         1.4110     0.1510    -0.4450 hc         1 GCY       0.036200
    109 H41          0.0390    -1.7470     0.4660 hc         1 GCY       0.040200
    110 H41A        -0.0190    -0.9510     2.0380 hc         1 GCY       0.040200
    111 H42         -1.2260     0.9960     1.0130 hc         1 GCY       0.036700
    112 H42A        -1.1610     0.2090    -0.5640 hc         1 GCY       0.036700
    113 H43         -2.5270    -1.7000     0.3300 hc         1 GCY       0.038200
    114 H43A        -2.5910    -0.9160     1.9090 hc         1 GCY       0.038200
    115 H44         -3.8050     1.0330     0.8960 hc         1 GCY       0.037200
    116 H44A        -3.7350     0.2570    -0.6870 hc         1 GCY       0.037200
    117 HAJ         -5.0940    -1.6630     0.1920 hc         1 GCY       0.037700
    118 HAJA        -5.1620    -0.8920     1.7760 hc         1 GCY       0.037700
    119 HAK         -6.3820     1.0620     0.7760 hc         1 GCY       0.036700
    120 HAKA        -6.3100     0.2960    -0.8110 hc         1 GCY       0.036700
    121 HAL         -7.6640    -1.6330     0.0550 hc         1 GCY       0.037700
    122 HALA        -7.7330    -0.8730     1.6450 hc         1 GCY       0.037700
    123 HAM         -8.9580     1.0850     0.6570 hc         1 GCY       0.037200
    124 HAN        -10.2360    -1.6080    -0.0770 hc         1 GCY       0.037700
    125 HAO        -11.5320     1.1060     0.5390 hc         1 GCY       0.036700
    126 HAOA       -11.4610     0.3560    -1.0570 hc         1 GCY       0.036700
    127 HAP        -12.8080    -1.5850    -0.2060 hc         1 GCY       0.037700
    128 HAQ        -14.1060     1.1260     0.4210 hc         1 GCY       0.036700
    129 HAR        -15.3810    -1.5650    -0.3280 hc         1 GCY       0.037200
    130 HARA       -15.4490    -0.8210     1.2700 hc         1 GCY       0.037200
    131 HAS        -16.6800     1.1440     0.3030 hc         1 GCY       0.036700
    132 HASA       -16.6110     0.4010    -1.2950 hc         1 GCY       0.036700
    133 HAT        -17.9530    -1.5470    -0.4480 hc         1 GCY       0.037200
    134 HAU        -19.2550     1.1610     0.1850 hc         1 GCY       0.036700
    135 HAV        -20.5260    -1.5310    -0.5680 hc         1 GCY       0.036700
    136 HAVA       -20.5960    -0.7880     1.0310 hc         1 GCY       0.036700
    137 HAY        -25.2810    -0.3570    -0.3530 hc         1 GCY       0.031367
    138 HAYA       -24.4430     1.1800    -0.0450 hc         1 GCY       0.031367
    139 HAYB       -24.3700     0.4320    -1.6590 hc         1 GCY       0.031367
    140 HAMA        -8.8860     0.3290    -0.9350 hc         1 GCY       0.037200
    141 HANA       -10.3050    -0.8560     1.5170 hc         1 GCY       0.037700
    142 HAPA       -12.8770    -0.8390     1.3910 hc         1 GCY       0.037700
    143 HAQA       -14.0360     0.3810    -1.1760 hc         1 GCY       0.036700
    144 HATA       -18.0220    -0.8040     1.1510 hc         1 GCY       0.037200
    145 HAUA       -19.1850     0.4190    -1.4140 hc         1 GCY       0.036700
    146 HAW        -21.8290     1.1760     0.0640 hc         1 GCY       0.036700
    147 HAWA       -21.7580     0.4340    -1.5350 hc         1 GCY       0.036700
    148 HAX        -23.1030    -1.5160    -0.6890 hc         1 GCY       0.036700
    149 HAXA       -23.1740    -0.7730     0.9090 hc         1 GCY       0.036700
    150 C37          5.1440    -0.9230     1.1900 c          1 GCY       0.602100
@<TRIPOS>BOND
     1     1     4 1   
     2     1    57 1   
     3     1    58 1   
     4     1    59 1   
     5     2    24 1   
     6     2    60 1   
     7     2   150 1   
     8     3    22 1   
     9     3    61 1   
    10     4     6 1   
    11     4    62 1   
    12     4    63 1   
    13     5    26 1   
    14     5    28 1   
    15     6     8 1   
    16     6    64 1   
    17     6    65 1   
    18     7    30 1   
    19     7    66 1   
    20     8    10 1   
    21     8    67 1   
    22     8    68 1   
    23     9    28 1   
    24     9    29 1   
    25    10    12 1   
    26    10    69 1   
    27    10    70 1   
    28    11    31 1   
    29    11    71 1   
    30    12    13 1   
    31    12    72 1   
    32    12    73 1   
    33    13    14 1   
    34    13    74 1   
    35    13    75 1   
    36    14    15 1   
    37    14    76 1   
    38    14    77 1   
    39    15    16 1   
    40    15    78 1   
    41    15    79 1   
    42    16    17 1   
    43    16    80 1   
    44    16    81 1   
    45    17    18 1   
    46    17    82 1   
    47    17    83 1   
    48    18    19 1   
    49    18    84 1   
    50    18    85 1   
    51    19    20 1   
    52    19    86 1   
    53    19    87 1   
    54    20    21 2   
    55    20    88 1   
    56    21    22 1   
    57    21    89 1   
    58    22    24 1   
    59    22    90 1   
    60    23    32 1   
    61    23    91 1   
    62    24    26 1   
    63    24    92 1   
    64    25    33 1   
    65    25    93 1   
    66    26    94 1   
    67    26    95 1   
    68    27   150 2   
    69    28    33 1   
    70    28    96 1   
    71    29    30 1   
    72    29    31 1   
    73    29    97 1   
    74    30    98 1   
    75    30    99 1   
    76    31    32 1   
    77    31   100 1   
    78    32    33 1   
    79    32   101 1   
    80    33   102 1   
    81    34    35 1   
    82    34   103 1   
    83    34   104 1   
    84    34   150 1   
    85    35    36 1   
    86    35   105 1   
    87    35   106 1   
    88    36    37 1   
    89    36   107 1   
    90    36   108 1   
    91    37    38 1   
    92    37   109 1   
    93    37   110 1   
    94    38    39 1   
    95    38   111 1   
    96    38   112 1   
    97    39    40 1   
    98    39   113 1   
    99    39   114 1   
   100    40    41 1   
   101    40   115 1   
   102    40   116 1   
   103    41    42 1   
   104    41   117 1   
   105    41   118 1   
   106    42    43 1   
   107    42   119 1   
   108    42   120 1   
   109    43    44 1   
   110    43   121 1   
   111    43   122 1   
   112    44    45 1   
   113    44   123 1   
   114    44   140 1   
   115    45    46 1   
   116    45   124 1   
   117    45   141 1   
   118    46    47 1   
   119    46   125 1   
   120    46   126 1   
   121    47    48 1   
   122    47   127 1   
   123    47   142 1   
   124    48    49 1   
   125    48   128 1   
   126    48   143 1   
   127    49    50 1   
   128    49   129 1   
   129    49   130 1   
   130    50    51 1   
   131    50   131 1   
   132    50   132 1   
   133    51    52 1   
   134    51   133 1   
   135    51   144 1   
   136    52    53 1   
   137    52   134 1   
   138    52   145 1   
   139    53    54 1   
   140    53   135 1   
   141    53   136 1   
   142    54    55 1   
   143    54   146 1   
   144    54   147 1   
   145    55    56 1   
   146    55   148 1   
   147    55   149 1   
   148    56   137 1   
   149    56   138 1   
   150    56   139 1   
@<TRIPOS>SUBSTRUCTURE
     1 GCY         1 TEMP              0 ****  ****    0 ROOT
