@<TRIPOS>MOLECULE
GCZ
   43    45     1     0     0
SMALL
No Charge or Current Charge


@<TRIPOS>ATOM
      1 O2          -0.4180     0.4380    -2.1600 o          1 GCZ      -0.614100
      2 O3          -1.7890     2.2670     1.6330 o          1 GCZ      -0.535000
      3 O4          -2.1250     2.6780    -0.8720 o          1 GCZ      -0.535000
      4 S1          -1.8080     1.7830     0.2480 sy         1 GCZ       1.206300
      5 N5           2.2890     0.3520     0.2130 n3         1 GCZ      -0.440600
      6 N6           1.5170     0.1900    -0.9900 ns         1 GCZ      -0.411300
      7 N7          -0.2730     1.2040    -0.0260 ns         1 GCZ      -0.595300
      8 C8           4.5020     0.0570    -0.5550 c5         1 GCZ      -0.103200
      9 C9           3.9460    -1.3070    -0.0320 c5         1 GCZ      -0.103200
     10 C10          5.9210     0.1870     0.0850 c5         1 GCZ      -0.068900
     11 C11          5.0850    -1.8960     0.8610 c5         1 GCZ      -0.068900
     12 C12          3.5460     1.1260     0.0700 c5         1 GCZ       0.128800
     13 C13          2.7320    -0.9040     0.8650 c5         1 GCZ       0.128800
     14 C14          6.3420    -1.3020     0.1730 c5         1 GCZ      -0.079400
     15 C15          0.2100     0.6080    -1.1310 c          1 GCZ       0.696100
     16 C16         -2.8770     0.3330     0.1530 ca         1 GCZ      -0.298500
     17 C17         -3.0680    -0.4760     1.2920 ca         1 GCZ       0.002000
     18 C18         -3.5140    -0.0050    -1.0580 ca         1 GCZ       0.002000
     19 C19         -4.5340    -1.9500     0.0100 ca         1 GCZ      -0.017300
     20 C20         -3.8950    -1.6100     1.2170 ca         1 GCZ      -0.137000
     21 C21         -4.3390    -1.1410    -1.1250 ca         1 GCZ      -0.137000
     22 C22         -5.4300    -3.1760    -0.0660 c3         1 GCZ      -0.057800
     23 H1           1.9280    -0.2710    -1.7950 hn         1 GCZ       0.328500
     24 H2           0.3240     1.2650     0.7770 hn         1 GCZ       0.368500
     25 H3           4.5210     0.0930    -1.6510 hc         1 GCZ       0.057700
     26 H4           3.6620    -1.9710    -0.8570 hc         1 GCZ       0.057700
     27 H5           6.6030     0.7780    -0.5370 hc         1 GCZ       0.047200
     28 H6           5.9110     0.6470     1.0810 hc         1 GCZ       0.047200
     29 H7           5.0290    -1.5750     1.9080 hc         1 GCZ       0.047200
     30 H8           5.0870    -2.9920     0.8600 hc         1 GCZ       0.047200
     31 H9           3.4290     2.0120    -0.5690 h1         1 GCZ       0.072200
     32 H10          3.8910     1.4700     1.0550 h1         1 GCZ       0.072200
     33 H11          3.0280    -0.7050     1.9050 h1         1 GCZ       0.072200
     34 H12          1.9470    -1.6730     0.8840 h1         1 GCZ       0.072200
     35 H13          6.5170    -1.7410    -0.8170 hc         1 GCZ       0.047700
     36 H14          7.2510    -1.4460     0.7670 hc         1 GCZ       0.047700
     37 H15         -2.5800    -0.2330     2.2350 ha         1 GCZ       0.137500
     38 H16         -3.3720     0.6040    -1.9510 ha         1 GCZ       0.137500
     39 H17         -4.0390    -2.2270     2.1010 ha         1 GCZ       0.116500
     40 H18         -4.8280    -1.3920    -2.0630 ha         1 GCZ       0.116500
     41 H19         -6.4650    -2.9180     0.1840 hc         1 GCZ       0.048367
     42 H20         -5.4260    -3.6120    -1.0720 hc         1 GCZ       0.048367
     43 H21         -5.1000    -3.9560     0.6310 hc         1 GCZ       0.048367
@<TRIPOS>BOND
     1     1    15 2   
     2     2     4 2   
     3     3     4 2   
     4     4     7 1   
     5     4    16 1   
     6     5     6 1   
     7     5    12 1   
     8     5    13 1   
     9     6    15 1   
    10     6    23 1   
    11     7    15 1   
    12     7    24 1   
    13     8     9 1   
    14     8    10 1   
    15     8    12 1   
    16     8    25 1   
    17     9    11 1   
    18     9    13 1   
    19     9    26 1   
    20    10    14 1   
    21    10    27 1   
    22    10    28 1   
    23    11    14 1   
    24    11    29 1   
    25    11    30 1   
    26    12    31 1   
    27    12    32 1   
    28    13    33 1   
    29    13    34 1   
    30    14    35 1   
    31    14    36 1   
    32    16    17 ar  
    33    16    18 ar  
    34    17    20 ar  
    35    17    37 1   
    36    18    21 ar  
    37    18    38 1   
    38    19    20 ar  
    39    19    21 ar  
    40    19    22 1   
    41    20    39 1   
    42    21    40 1   
    43    22    41 1   
    44    22    42 1   
    45    22    43 1   
@<TRIPOS>SUBSTRUCTURE
     1 GCZ         1 TEMP              0 ****  ****    0 ROOT
