@<TRIPOS>MOLECULE
GCZ
   43    45     1     0     0
SMALL
abcg2


@<TRIPOS>ATOM
      1 O2          -0.4820     0.2980    -2.0280 o          1 GCZ      -0.614100
      2 O3          -1.8050     2.1970     1.6230 o          1 GCZ      -0.535000
      3 O4          -2.0430     2.6020    -0.8390 o          1 GCZ      -0.535000
      4 S1          -1.7750     1.6970     0.2590 sy         1 GCZ       1.206300
      5 N5           2.2190     0.2090     0.2170 n3         1 GCZ      -0.440600
      6 N6           1.4820     0.0060    -0.9390 ns         1 GCZ      -0.411300
      7 N7          -0.2490     1.0640     0.1100 ns         1 GCZ      -0.595300
      8 C8           4.4900     0.0310    -0.5340 c5         1 GCZ      -0.103200
      9 C9           4.0580    -1.3390     0.0640 c5         1 GCZ      -0.103200
     10 C10          5.9270     0.2720    -0.0520 c5         1 GCZ      -0.068900
     11 C11          5.2270    -1.7890     0.9470 c5         1 GCZ      -0.068900
     12 C12          3.4240     1.0090    -0.0240 c5         1 GCZ       0.128800
     13 C13          2.7290    -1.0470     0.7800 c5         1 GCZ       0.128800
     14 C14          6.4450    -1.1190     0.3150 c5         1 GCZ      -0.079400
     15 C15          0.2080     0.4430    -1.0370 c          1 GCZ       0.696100
     16 C16         -2.8530     0.3090     0.1300 ca         1 GCZ      -0.298500
     17 C17         -2.9630    -0.5550     1.2130 ca         1 GCZ       0.002000
     18 C18         -3.5830     0.1020    -1.0300 ca         1 GCZ       0.002000
     19 C19         -4.5690    -1.8700    -0.0310 ca         1 GCZ      -0.017300
     20 C20         -3.8170    -1.6400     1.1210 ca         1 GCZ      -0.137000
     21 C21         -4.4380    -0.9860    -1.1000 ca         1 GCZ      -0.137000
     22 C22         -5.5210    -3.0250    -0.1050 c3         1 GCZ      -0.057800
     23 H1           1.8890    -0.4370    -1.7550 hn         1 GCZ       0.328500
     24 H2           0.3700     1.1130     0.9140 hn         1 GCZ       0.368500
     25 H3           4.4610    -0.0080    -1.6250 hc         1 GCZ       0.057700
     26 H4           3.9060    -2.0670    -0.7360 hc         1 GCZ       0.057700
     27 H5           6.5450     0.7750    -0.7960 hc         1 GCZ       0.047200
     28 H6           5.9220     0.9050     0.8410 hc         1 GCZ       0.047200
     29 H7           5.0910    -1.4170     1.9680 hc         1 GCZ       0.047200
     30 H8           5.3180    -2.8740     1.0110 hc         1 GCZ       0.047200
     31 H9           3.2010     1.8320    -0.7020 h1         1 GCZ       0.072200
     32 H10          3.7290     1.4390     0.9340 h1         1 GCZ       0.072200
     33 H11          2.9010    -0.8820     1.8470 h1         1 GCZ       0.072200
     34 H12          1.9800    -1.8310     0.6830 h1         1 GCZ       0.072200
     35 H13          6.7440    -1.6610    -0.5870 hc         1 GCZ       0.047700
     36 H14          7.3120    -1.0910     0.9780 hc         1 GCZ       0.047700
     37 H15         -2.3940    -0.3940     2.1190 ha         1 GCZ       0.137500
     38 H16         -3.4950     0.7750    -1.8710 ha         1 GCZ       0.137500
     39 H17         -3.9020    -2.3160     1.9630 ha         1 GCZ       0.116500
     40 H18         -5.0100    -1.1490    -2.0050 ha         1 GCZ       0.116500
     41 H19         -6.5020    -2.7360     0.2770 hc         1 GCZ       0.048367
     42 H20         -5.6590    -3.3660    -1.1300 hc         1 GCZ       0.048367
     43 H21         -5.1760    -3.8680     0.4920 hc         1 GCZ       0.048367
@<TRIPOS>BOND
     1     1    15 2   
     2     2     4 2   
     3     3     4 2   
     4     4     7 1   
     5     4    16 1   
     6     5     6 1   
     7     5    12 1   
     8     5    13 1   
     9     6    15 1   
    10     6    23 1   
    11     7    15 1   
    12     7    24 1   
    13     8     9 1   
    14     8    10 1   
    15     8    12 1   
    16     8    25 1   
    17     9    11 1   
    18     9    13 1   
    19     9    26 1   
    20    10    14 1   
    21    10    27 1   
    22    10    28 1   
    23    11    14 1   
    24    11    29 1   
    25    11    30 1   
    26    12    31 1   
    27    12    32 1   
    28    13    33 1   
    29    13    34 1   
    30    14    35 1   
    31    14    36 1   
    32    16    17 ar  
    33    16    18 ar  
    34    17    20 ar  
    35    17    37 1   
    36    18    21 ar  
    37    18    38 1   
    38    19    20 ar  
    39    19    21 ar  
    40    19    22 1   
    41    20    39 1   
    42    21    40 1   
    43    22    41 1   
    44    22    42 1   
    45    22    43 1   
@<TRIPOS>SUBSTRUCTURE
     1 GCZ         1 TEMP              0 ****  ****    0 ROOT
