@<TRIPOS>MOLECULE
GD0
   42    43     1     0     0
SMALL
No Charge or Current Charge


@<TRIPOS>ATOM
      1 C1          62.6370   -31.2840    35.4060 ca         1 GD0      -0.022000
      2 N1          60.0120   -31.2350    38.0400 nc         1 GD0      -0.635000
      3 O1          57.3200   -32.6780    36.4650 os         1 GD0      -0.460000
      4 C2          64.8610   -30.3610    34.9560 ca         1 GD0      -0.112000
      5 C3          62.7620   -32.0780    34.2450 ca         1 GD0      -0.090000
      6 C4          64.9680   -31.1510    33.8010 ca         1 GD0      -0.100000
      7 C5          63.9180   -32.0120    33.4480 ca         1 GD0      -0.112000
      8 C6          61.4130   -31.3500    36.2380 cd         1 GD0      -0.121000
      9 C7          61.2990   -31.2110    37.6050 cc         1 GD0       0.348800
     10 C8          59.2830   -31.3170    36.9370 cd         1 GD0       0.402800
     11 C10         59.4500   -29.7070    33.8880 c3         1 GD0       0.173000
     12 C11         60.8060   -28.9640    33.8600 c3         1 GD0      -0.107600
     13 C12         58.8130   -29.7060    32.4800 c3         1 GD0      -0.107600
     14 C13         57.7650   -31.3940    36.9590 c3         1 GD0       0.127300
     15 C14         55.8950   -32.8350    36.4150 c3         1 GD0       0.160600
     16 I           62.8620   -31.1820    39.0480 i          1 GD0      -0.176800
     17 C15         55.6030   -34.2380    35.8600 c3         1 GD0      -0.092100
     18 N           60.0850   -31.3240    35.7960 na         1 GD0      -0.135500
     19 O           58.5750   -28.9800    34.7530 oh         1 GD0      -0.662000
     20 C           63.7060   -30.4310    35.7540 ca         1 GD0      -0.090000
     21 H1          65.6700   -29.6870    35.2300 ha         1 GD0       0.116500
     22 H2          61.9870   -32.7900    33.9800 ha         1 GD0       0.120500
     23 H3          65.8620   -31.0980    33.1840 ha         1 GD0       0.115000
     24 H4          64.0030   -32.6370    32.5630 ha         1 GD0       0.116500
     25 H5          58.5990   -31.6520    34.3430 h1         1 GD0       0.077700
     26 H6          60.2250   -31.7260    33.7140 h1         1 GD0       0.077700
     27 H7          61.2140   -28.8460    34.8710 hc         1 GD0       0.048200
     28 H8          61.5370   -29.5120    33.2560 hc         1 GD0       0.048200
     29 H9          60.6970   -27.9620    33.4280 hc         1 GD0       0.048200
     30 H10         57.8280   -30.1890    32.4950 hc         1 GD0       0.048200
     31 H11         58.6830   -28.6840    32.1040 hc         1 GD0       0.048200
     32 H12         59.4460   -30.2490    31.7680 hc         1 GD0       0.048200
     33 H13         57.3550   -30.5820    36.3470 h1         1 GD0       0.055200
     34 H14         57.4170   -31.2380    37.9890 h1         1 GD0       0.055200
     35 H15         55.4420   -32.0800    35.7590 h1         1 GD0       0.023200
     36 H16         55.4550   -32.7380    37.4170 h1         1 GD0       0.023200
     37 H17         54.5210   -34.4050    35.8020 hc         1 GD0       0.043700
     38 H18         56.0230   -34.3500    34.8540 hc         1 GD0       0.043700
     39 H19         56.0350   -35.0080    36.5090 hc         1 GD0       0.043700
     40 H20         58.5230   -28.0630    34.4070 ho         1 GD0       0.453000
     41 H21         63.6320   -29.7770    36.6180 ha         1 GD0       0.120500
     42 C9          59.5840   -31.1740    34.4040 c3         1 GD0       0.034600
@<TRIPOS>BOND
     1     1     5 ar  
     2     1     8 1   
     3     1    20 ar  
     4     2     9 1   
     5     2    10 2   
     6     3    14 1   
     7     3    15 1   
     8     4     6 ar  
     9     4    20 ar  
    10     4    21 1   
    11     5     7 ar  
    12     5    22 1   
    13     6     7 ar  
    14     6    23 1   
    15     7    24 1   
    16     8     9 2   
    17     8    18 1   
    18     9    16 1   
    19    10    14 1   
    20    10    18 1   
    21    11    12 1   
    22    11    13 1   
    23    11    19 1   
    24    11    42 1   
    25    12    27 1   
    26    12    28 1   
    27    12    29 1   
    28    13    30 1   
    29    13    31 1   
    30    13    32 1   
    31    14    33 1   
    32    14    34 1   
    33    15    17 1   
    34    15    35 1   
    35    15    36 1   
    36    17    37 1   
    37    17    38 1   
    38    17    39 1   
    39    18    42 1   
    40    19    40 1   
    41    20    41 1   
    42    25    42 1   
    43    26    42 1   
@<TRIPOS>SUBSTRUCTURE
     1 GD0         1 TEMP              0 ****  ****    0 ROOT
