@<TRIPOS>MOLECULE
GD0
   42    43     1     0     0
SMALL
abcg2


@<TRIPOS>ATOM
      1 C1          62.5660   -31.2110    35.3960 ca         1 GD0      -0.022000
      2 N1          59.9920   -31.2240    38.0280 nc         1 GD0      -0.635000
      3 O1          57.4690   -32.6410    36.3980 os         1 GD0      -0.460000
      4 C2          64.6780   -30.2830    34.6880 ca         1 GD0      -0.112000
      5 C3          62.7510   -32.2720    34.5100 ca         1 GD0      -0.090000
      6 C4          64.8500   -31.3360    33.7980 ca         1 GD0      -0.100000
      7 C5          63.8840   -32.3290    33.7110 ca         1 GD0      -0.112000
      8 C6          61.3830   -31.1600    36.2590 cd         1 GD0      -0.121000
      9 C7          61.2780   -31.1710    37.6250 cc         1 GD0       0.348800
     10 C8          59.2830   -31.2340    36.9240 cd         1 GD0       0.402800
     11 C10         59.4000   -29.6360    33.9590 c3         1 GD0       0.173000
     12 C11         60.7220   -28.8900    33.8130 c3         1 GD0      -0.107600
     13 C12         58.6980   -29.7260    32.6090 c3         1 GD0      -0.107600
     14 C13         57.7980   -31.3630    36.8900 c3         1 GD0       0.127300
     15 C14         56.0760   -32.8100    36.2310 c3         1 GD0       0.160600
     16 I           62.8400   -31.2100    38.9960 i          1 GD0      -0.176800
     17 C15         55.8080   -34.1830    35.6590 c3         1 GD0      -0.092100
     18 N           60.0770   -31.1910    35.8230 na         1 GD0      -0.135500
     19 O           58.5330   -28.9270    34.8240 oh         1 GD0      -0.662000
     20 C           63.5420   -30.2190    35.4790 ca         1 GD0      -0.090000
     21 H1          65.4270   -29.5050    34.7620 ha         1 GD0       0.116500
     22 H2          62.0160   -33.0650    34.4530 ha         1 GD0       0.120500
     23 H3          65.7350   -31.3830    33.1770 ha         1 GD0       0.115000
     24 H4          64.0150   -33.1560    33.0250 ha         1 GD0       0.116500
     25 H5          58.6630   -31.6300    34.3930 h1         1 GD0       0.077700
     26 H6          60.3030   -31.5950    33.7950 h1         1 GD0       0.077700
     27 H7          61.2190   -28.7470    34.7740 hc         1 GD0       0.048200
     28 H8          61.4130   -29.4260    33.1610 hc         1 GD0       0.048200
     29 H9          60.5470   -27.9030    33.3820 hc         1 GD0       0.048200
     30 H10         57.7220   -30.2060    32.7020 hc         1 GD0       0.048200
     31 H11         58.5530   -28.7320    32.1850 hc         1 GD0       0.048200
     32 H12         59.2930   -30.3070    31.9040 hc         1 GD0       0.048200
     33 H13         57.3550   -30.5790    36.2660 h1         1 GD0       0.055200
     34 H14         57.4290   -31.2160    37.9120 h1         1 GD0       0.055200
     35 H15         55.6770   -32.0370    35.5610 h1         1 GD0       0.023200
     36 H16         55.5590   -32.6940    37.1930 h1         1 GD0       0.023200
     37 H17         54.7340   -34.3240    35.5320 hc         1 GD0       0.043700
     38 H18         56.2780   -34.3070    34.6830 hc         1 GD0       0.043700
     39 H19         56.1710   -34.9700    36.3200 hc         1 GD0       0.043700
     40 H20         59.0310   -28.6180    35.5880 ho         1 GD0       0.453000
     41 H21         63.4010   -29.3860    36.1570 ha         1 GD0       0.120500
     42 C9          59.6030   -31.0830    34.4540 c3         1 GD0       0.034600
@<TRIPOS>BOND
     1     1     5 ar  
     2     1     8 1   
     3     1    20 ar  
     4     2     9 1   
     5     2    10 2   
     6     3    14 1   
     7     3    15 1   
     8     4     6 ar  
     9     4    20 ar  
    10     4    21 1   
    11     5     7 ar  
    12     5    22 1   
    13     6     7 ar  
    14     6    23 1   
    15     7    24 1   
    16     8     9 2   
    17     8    18 1   
    18     9    16 1   
    19    10    14 1   
    20    10    18 1   
    21    11    12 1   
    22    11    13 1   
    23    11    19 1   
    24    11    42 1   
    25    12    27 1   
    26    12    28 1   
    27    12    29 1   
    28    13    30 1   
    29    13    31 1   
    30    13    32 1   
    31    14    33 1   
    32    14    34 1   
    33    15    17 1   
    34    15    35 1   
    35    15    36 1   
    36    17    37 1   
    37    17    38 1   
    38    17    39 1   
    39    18    42 1   
    40    19    40 1   
    41    20    41 1   
    42    25    42 1   
    43    26    42 1   
@<TRIPOS>SUBSTRUCTURE
     1 GD0         1 TEMP              0 ****  ****    0 ROOT
