@<TRIPOS>MOLECULE
GD1
   20    21     1     0     0
SMALL
abcg2


@<TRIPOS>ATOM
      1 O6           3.9330    19.2290    14.0360 o          1 GD1      -0.514000
      2 C6           2.9950    19.8390    14.5460 c          1 GD1       0.616600
      3 C5           1.6430    19.9880    14.0990 cc         1 GD1      -0.251600
      4 C7           0.8470    19.5350    12.9730 cc         1 GD1      -0.135900
      5 C77          1.0980    18.6840    11.8280 ce         1 GD1       0.481800
      6 N77          2.1910    18.0800    11.5540 n2         1 GD1      -0.710100
      7 N1           3.2320    20.5230    15.7570 ns         1 GD1      -0.460400
      8 C2           2.3220    21.2600    16.4590 cc         1 GD1       0.725800
      9 N2           2.7500    21.8730    17.5860 nv         1 GD1      -1.038200
     10 N3           1.0830    21.4160    16.0500 nd         1 GD1      -0.721100
     11 C4           0.8010    20.7830    14.8930 cd         1 GD1       0.156400
     12 N9          -0.4270    20.8250    14.3000 na         1 GD1      -0.111000
     13 C8          -0.4080    20.0810    13.1520 cd         1 GD1      -0.179000
     14 H1           0.2190    18.5890    11.1810 h4         1 GD1      -0.052200
     15 H2           2.0820    17.5470    10.6920 hn         1 GD1       0.368400
     16 H3           4.1810    20.4530    16.1020 hn         1 GD1       0.322500
     17 H4           2.0370    22.2580    18.1850 hn         1 GD1       0.495000
     18 H5           3.5890    21.5500    18.0410 hn         1 GD1       0.495000
     19 H6          -1.2200    21.3310    14.6630 hn         1 GD1       0.361000
     20 H7          -1.2860    19.9840    12.5370 h4         1 GD1       0.150000
@<TRIPOS>BOND
     1     1     2 2   
     2     2     3 1   
     3     2     7 1   
     4     3     4 1   
     5     3    11 2   
     6     4     5 1   
     7     4    13 2   
     8     5     6 2   
     9     5    14 1   
    10     6    15 1   
    11     7     8 1   
    12     7    16 1   
    13     8     9 1   
    14     8    10 2   
    15     9    17 1   
    16     9    18 1   
    17    10    11 1   
    18    11    12 1   
    19    12    13 1   
    20    12    19 1   
    21    13    20 1   
@<TRIPOS>SUBSTRUCTURE
     1 GD1         1 TEMP              0 ****  ****    0 ROOT
