@<TRIPOS>MOLECULE
GD1
   20    21     1     0     0
SMALL
No Charge or Current Charge


@<TRIPOS>ATOM
      1 O6           3.8340    19.4920    13.7330 o          1 GD1      -0.514000
      2 C6           2.9790    20.0170    14.4270 c          1 GD1       0.616600
      3 C5           1.5460    20.1320    14.1210 cc         1 GD1      -0.251600
      4 C7           0.8140    19.6480    12.9920 cc         1 GD1      -0.135900
      5 C77          1.3250    18.8540    11.8670 ce         1 GD1       0.481800
      6 N77          1.9780    17.7570    12.0630 n2         1 GD1      -0.710100
      7 N1           3.2770    20.6060    15.6070 ns         1 GD1      -0.460400
      8 C2           2.3660    21.2320    16.3770 cc         1 GD1       0.725800
      9 N2           2.8200    21.7580    17.4990 nv         1 GD1      -1.038200
     10 N3           1.0860    21.3900    16.1360 nd         1 GD1      -0.721100
     11 C4           0.6910    20.7990    14.9440 cd         1 GD1       0.156400
     12 N9          -0.5660    20.7740    14.3680 na         1 GD1      -0.111000
     13 C8          -0.4910    20.0710    13.1550 cd         1 GD1      -0.179000
     14 H1           0.7800    18.9920    10.9320 h4         1 GD1      -0.052200
     15 H2           2.0610    17.2580    11.1670 hn         1 GD1       0.368400
     16 H3           4.2420    20.5950    15.8890 hn         1 GD1       0.322500
     17 H4           2.0800    22.0550    18.1230 hn         1 GD1       0.495000
     18 H5           3.5930    21.2830    17.9480 hn         1 GD1       0.495000
     19 H6          -1.3950    21.2000    14.7670 hn         1 GD1       0.361000
     20 H7          -1.3570    19.9150    12.5210 h4         1 GD1       0.150000
@<TRIPOS>BOND
     1     1     2 2   
     2     2     3 1   
     3     2     7 1   
     4     3     4 1   
     5     3    11 2   
     6     4     5 1   
     7     4    13 2   
     8     5     6 2   
     9     5    14 1   
    10     6    15 1   
    11     7     8 1   
    12     7    16 1   
    13     8     9 1   
    14     8    10 2   
    15     9    17 1   
    16     9    18 1   
    17    10    11 1   
    18    11    12 1   
    19    12    13 1   
    20    12    19 1   
    21    13    20 1   
@<TRIPOS>SUBSTRUCTURE
     1 GD1         1 TEMP              0 ****  ****    0 ROOT
