@<TRIPOS>MOLECULE
GD4
   58    61     1     0     0
SMALL
No Charge or Current Charge


@<TRIPOS>ATOM
      1 CAM          3.1560     2.4060     0.4710 c6         1 GD4      -0.106400
      2 CAL          4.6490     2.4410     0.0910 c6         1 GD4      -0.021100
      3 CBB          5.2960     1.0440     0.0740 ca         1 GD4      -0.118300
      4 CAZ          6.7060     0.9050     0.0250 ca         1 GD4      -0.129300
      5 CAC          7.6060     2.1510    -0.0580 c3         1 GD4      -0.049800
      6 CBA          7.2770    -0.3900     0.0730 ca         1 GD4       0.110100
      7 OAG          8.6390    -0.5260     0.0650 oh         1 GD4      -0.544100
      8 CAX          6.4610    -1.5460     0.1400 ca         1 GD4      -0.072300
      9 CAA          7.0950    -2.9450     0.2070 c3         1 GD4      -0.037800
     10 CAY          5.0500    -1.4060     0.1350 ca         1 GD4      -0.067300
     11 CAB          4.1450    -2.6460     0.1680 c3         1 GD4      -0.040800
     12 CBC          4.4770    -0.1140     0.1080 ca         1 GD4       0.113100
     13 OAR          3.0960    -0.0090     0.1480 os         1 GD4      -0.339100
     14 CBE          2.4290     1.2210    -0.2070 c6         1 GD4       0.191000
     15 CAD          2.4270     1.3270    -1.7670 c3         1 GD4      -0.111100
     16 CAN          0.9560     1.1170     0.3190 c3         1 GD4       0.170600
     17 OAQ          0.2540     0.0290    -0.3180 os         1 GD4      -0.330100
     18 CAW         -1.0600    -0.2700    -0.0270 ca         1 GD4       0.155100
     19 CAK         -1.8180     0.4620     0.9120 ca         1 GD4      -0.173000
     20 CAI         -3.1550     0.1090     1.1660 ca         1 GD4      -0.058500
     21 CAJ         -1.6510    -1.3490    -0.7010 ca         1 GD4      -0.173000
     22 CAH         -2.9880    -1.7020    -0.4490 ca         1 GD4      -0.058500
     23 CAV         -3.7470    -0.9740     0.4870 ca         1 GD4      -0.141300
     24 CAO         -5.1990    -1.3560     0.7570 c3         1 GD4       0.000900
     25 CBD         -6.1610    -0.9610    -0.3910 c5         1 GD4      -0.036700
     26 SAS         -6.2080     0.8990    -0.6060 ss         1 GD4      -0.264600
     27 CAT         -7.9960     0.9290    -0.3710 c          1 GD4       0.594600
     28 OAE         -8.7180     1.9100    -0.3920 o          1 GD4      -0.464000
     29 NAP         -8.4140    -0.3380    -0.1470 ns         1 GD4      -0.483500
     30 CAU         -7.6090    -1.4300    -0.1190 c          1 GD4       0.575000
     31 OAF         -8.0130    -2.5610     0.0990 o          1 GD4      -0.486000
     32 H1           3.0680     2.3070     1.5620 hc         1 GD4       0.055200
     33 H2           2.6780     3.3580     0.2060 hc         1 GD4       0.055200
     34 H3           4.7620     2.9040    -0.8990 hc         1 GD4       0.052200
     35 H4           5.1720     3.0980     0.7990 hc         1 GD4       0.052200
     36 H5           7.8020     2.5580     0.9410 hc         1 GD4       0.041033
     37 H6           8.5730     1.9480    -0.5320 hc         1 GD4       0.041033
     38 H7           7.1530     2.9470    -0.6590 hc         1 GD4       0.041033
     39 H8           9.0360     0.3690     0.0710 ho         1 GD4       0.460000
     40 H9           7.0500    -3.4390    -0.7700 hc         1 GD4       0.044700
     41 H10          8.1450    -2.9280     0.5180 hc         1 GD4       0.044700
     42 H11          6.5790    -3.5860     0.9320 hc         1 GD4       0.044700
     43 H12          4.0900    -3.0620     1.1810 hc         1 GD4       0.046700
     44 H13          3.1200    -2.4370    -0.1560 hc         1 GD4       0.046700
     45 H14          4.5150    -3.4330    -0.4990 hc         1 GD4       0.046700
     46 H15          3.4410     1.3740    -2.1790 hc         1 GD4       0.050700
     47 H16          1.9380     0.4630    -2.2300 hc         1 GD4       0.050700
     48 H17          1.8940     2.2260    -2.0990 hc         1 GD4       0.050700
     49 H18          0.9820     0.9710     1.4070 h1         1 GD4       0.045200
     50 H19          0.4460     2.0680     0.1140 h1         1 GD4       0.045200
     51 H20         -1.3920     1.3030     1.4510 ha         1 GD4       0.124500
     52 H21         -3.7320     0.6830     1.8890 ha         1 GD4       0.115000
     53 H22         -1.0700    -1.9150    -1.4250 ha         1 GD4       0.124500
     54 H23         -3.4320    -2.5410    -0.9800 ha         1 GD4       0.115000
     55 H24         -5.2560    -2.4390     0.9210 hc         1 GD4       0.067700
     56 H25         -5.5420    -0.9010     1.6950 hc         1 GD4       0.067700
     57 H26         -5.8370    -1.4270    -1.3290 h1         1 GD4       0.115700
     58 H27         -9.4000    -0.4800     0.0130 hn         1 GD4       0.351500
@<TRIPOS>BOND
     1     1     2 1   
     2     1    14 1   
     3     1    32 1   
     4     1    33 1   
     5     2     3 1   
     6     2    34 1   
     7     2    35 1   
     8     3     4 ar  
     9     3    12 ar  
    10     4     5 1   
    11     4     6 ar  
    12     5    36 1   
    13     5    37 1   
    14     5    38 1   
    15     6     7 1   
    16     6     8 ar  
    17     7    39 1   
    18     8     9 1   
    19     8    10 ar  
    20     9    40 1   
    21     9    41 1   
    22     9    42 1   
    23    10    11 1   
    24    10    12 ar  
    25    11    43 1   
    26    11    44 1   
    27    11    45 1   
    28    12    13 1   
    29    13    14 1   
    30    14    15 1   
    31    14    16 1   
    32    15    46 1   
    33    15    47 1   
    34    15    48 1   
    35    16    17 1   
    36    16    49 1   
    37    16    50 1   
    38    17    18 1   
    39    18    19 ar  
    40    18    21 ar  
    41    19    20 ar  
    42    19    51 1   
    43    20    23 ar  
    44    20    52 1   
    45    21    22 ar  
    46    21    53 1   
    47    22    23 ar  
    48    22    54 1   
    49    23    24 1   
    50    24    25 1   
    51    24    55 1   
    52    24    56 1   
    53    25    26 1   
    54    25    30 1   
    55    25    57 1   
    56    26    27 1   
    57    27    28 2   
    58    27    29 1   
    59    29    30 1   
    60    29    58 1   
    61    30    31 2   
@<TRIPOS>SUBSTRUCTURE
     1 GD4         1 TEMP              0 ****  ****    0 ROOT
