@<TRIPOS>MOLECULE
GD4
   58    61     1     0     0
SMALL
bcc


@<TRIPOS>ATOM
      1 CAM          3.0700     2.3860     0.4240 c6         1 GD4      -0.106400
      2 CAL          4.5530     2.4240     0.0870 c6         1 GD4      -0.021100
      3 CBB          5.1670     1.0490     0.0840 ca         1 GD4      -0.118300
      4 CAZ          6.5580     0.8880     0.0650 ca         1 GD4      -0.129300
      5 CAC          7.4570     2.0930     0.0060 c3         1 GD4      -0.049800
      6 CBA          7.0910    -0.3990     0.1230 ca         1 GD4       0.110100
      7 OAG          8.4350    -0.6190     0.1360 oh         1 GD4      -0.505100
      8 CAX          6.2710    -1.5310     0.1480 ca         1 GD4      -0.072300
      9 CAA          6.8790    -2.9040     0.2200 c3         1 GD4      -0.037800
     10 CAY          4.8860    -1.3700     0.0940 ca         1 GD4      -0.067300
     11 CAB          3.9760    -2.5670     0.0650 c3         1 GD4      -0.040800
     12 CBC          4.3500    -0.0780     0.0890 ca         1 GD4       0.113100
     13 OAR          2.9930     0.0070     0.1140 os         1 GD4      -0.315900
     14 CBE          2.3820     1.2280    -0.2910 c6         1 GD4       0.167800
     15 CAD          2.4470     1.3770    -1.8080 c3         1 GD4      -0.111100
     16 CAN          0.9460     1.1430     0.2010 c3         1 GD4       0.147400
     17 OAQ          0.3080     0.0460    -0.4160 os         1 GD4      -0.306900
     18 CAW         -0.9610    -0.2440    -0.0730 ca         1 GD4       0.155100
     19 CAK         -1.7200     0.4880     0.8350 ca         1 GD4      -0.191000
     20 CAI         -3.0230     0.0930     1.1200 ca         1 GD4      -0.076500
     21 CAJ         -1.5250    -1.3670    -0.6850 ca         1 GD4      -0.191000
     22 CAH         -2.8200    -1.7430    -0.3880 ca         1 GD4      -0.076500
     23 CAV         -3.5940    -1.0210     0.5220 ca         1 GD4      -0.141300
     24 CAO         -5.0140    -1.4200     0.8080 c3         1 GD4       0.000900
     25 CBD         -5.9570    -0.9880    -0.3170 c5         1 GD4      -0.084600
     26 SAS         -5.9650     0.8150    -0.5510 ss         1 GD4      -0.216700
     27 CAT         -7.7110     0.9260    -0.3200 c          1 GD4       0.737100
     28 OAE         -8.3390     1.9470    -0.3690 o          1 GD4      -0.539500
     29 NAP         -8.2340    -0.3210    -0.0760 ns         1 GD4      -0.617500
     30 CAU         -7.3920    -1.3970    -0.0430 c          1 GD4       0.717500
     31 OAF         -7.7360    -2.5290     0.1840 o          1 GD4      -0.561500
     32 H1           2.9400     2.2640     1.5030 hc         1 GD4       0.055200
     33 H2           2.5980     3.3310     0.1500 hc         1 GD4       0.055200
     34 H3           4.7070     2.8990    -0.8870 hc         1 GD4       0.052200
     35 H4           5.0630     3.0640     0.8100 hc         1 GD4       0.052200
     36 H5           7.6940     2.4770     1.0010 hc         1 GD4       0.041033
     37 H6           8.4030     1.8890    -0.4980 hc         1 GD4       0.041033
     38 H7           6.9970     2.9090    -0.5480 hc         1 GD4       0.041033
     39 H8           8.9080     0.1830     0.3780 ho         1 GD4       0.421000
     40 H9           6.9860    -3.3510    -0.7720 hc         1 GD4       0.044700
     41 H10          7.8690    -2.8860     0.6700 hc         1 GD4       0.044700
     42 H11          6.2640    -3.5820     0.8090 hc         1 GD4       0.044700
     43 H12          3.8250    -2.9850     1.0640 hc         1 GD4       0.046700
     44 H13          2.9940    -2.3180    -0.3310 hc         1 GD4       0.046700
     45 H14          4.3880    -3.3640    -0.5530 hc         1 GD4       0.046700
     46 H15          3.4780     1.4250    -2.1620 hc         1 GD4       0.050700
     47 H16          1.9640     0.5410    -2.3120 hc         1 GD4       0.050700
     48 H17          1.9510     2.2970    -2.1180 hc         1 GD4       0.050700
     49 H18          0.9380     1.0290     1.2920 h1         1 GD4       0.045200
     50 H19          0.4320     2.0800    -0.0420 h1         1 GD4       0.045200
     51 H20         -1.3230     1.3630     1.3320 ha         1 GD4       0.142500
     52 H21         -3.5980     0.6750     1.8300 ha         1 GD4       0.133000
     53 H22         -0.9350    -1.9410    -1.3880 ha         1 GD4       0.142500
     54 H23         -3.2340    -2.6210    -0.8700 ha         1 GD4       0.133000
     55 H24         -5.0910    -2.5060     0.9050 hc         1 GD4       0.067700
     56 H25         -5.3500    -0.9850     1.7500 hc         1 GD4       0.067700
     57 H26         -5.6520    -1.4550    -1.2570 h1         1 GD4       0.115700
     58 H27         -9.2280    -0.4270     0.0920 hn         1 GD4       0.351500
@<TRIPOS>BOND
     1     1     2 1   
     2     1    14 1   
     3     1    32 1   
     4     1    33 1   
     5     2     3 1   
     6     2    34 1   
     7     2    35 1   
     8     3     4 ar  
     9     3    12 ar  
    10     4     5 1   
    11     4     6 ar  
    12     5    36 1   
    13     5    37 1   
    14     5    38 1   
    15     6     7 1   
    16     6     8 ar  
    17     7    39 1   
    18     8     9 1   
    19     8    10 ar  
    20     9    40 1   
    21     9    41 1   
    22     9    42 1   
    23    10    11 1   
    24    10    12 ar  
    25    11    43 1   
    26    11    44 1   
    27    11    45 1   
    28    12    13 1   
    29    13    14 1   
    30    14    15 1   
    31    14    16 1   
    32    15    46 1   
    33    15    47 1   
    34    15    48 1   
    35    16    17 1   
    36    16    49 1   
    37    16    50 1   
    38    17    18 1   
    39    18    19 ar  
    40    18    21 ar  
    41    19    20 ar  
    42    19    51 1   
    43    20    23 ar  
    44    20    52 1   
    45    21    22 ar  
    46    21    53 1   
    47    22    23 ar  
    48    22    54 1   
    49    23    24 1   
    50    24    25 1   
    51    24    55 1   
    52    24    56 1   
    53    25    26 1   
    54    25    30 1   
    55    25    57 1   
    56    26    27 1   
    57    27    28 2   
    58    27    29 1   
    59    29    30 1   
    60    29    58 1   
    61    30    31 2   
@<TRIPOS>SUBSTRUCTURE
     1 GD4         1 TEMP              0 ****  ****    0 ROOT
