@<TRIPOS>MOLECULE
GD5
   50    54     1     0     0
SMALL
No Charge or Current Charge


@<TRIPOS>ATOM
      1 C1          -3.2460     2.2150     0.3820 c3         1 GD5      -0.022800
      2 C2          -3.2420     0.7450     0.0310 cc         1 GD5      -0.187300
      3 C3          -2.2020    -0.0970    -0.2390 cd         1 GD5       0.179000
      4 C4          -2.7570    -1.3790    -0.4970 cd         1 GD5       0.250900
      5 N1          -4.0750    -1.3880    -0.4060 nc         1 GD5      -0.510800
      6 N2          -4.3760    -0.0730    -0.0840 na         1 GD5       0.141800
      7 C5          -5.7770     0.3890     0.1270 c6         1 GD5       0.103300
      8 C6          -6.6930     0.0380    -1.0750 c6         1 GD5      -0.087900
      9 C7          -8.1410     0.5090    -0.8080 c6         1 GD5       0.159800
     10 N3          -8.6610    -0.0590     0.4580 n7         1 GD5      -0.859400
     11 C8          -7.8260     0.2830     1.6350 c6         1 GD5       0.159800
     12 C9          -6.3670    -0.1900     1.4390 c6         1 GD5      -0.087900
     13 N4          -0.8650     0.2690    -0.2480 nu         1 GD5      -0.888900
     14 C10          0.3260    -0.4070    -0.4830 ca         1 GD5       0.396900
     15 N5           0.2780    -1.7190    -0.7730 nb         1 GD5      -0.226000
     16 C11          1.4580    -2.3270    -1.0020 ca         1 GD5       0.166900
     17 C12          2.6740    -1.6270    -0.9310 ca         1 GD5      -0.076000
     18 C13          2.6160    -0.2530    -0.5980 ca         1 GD5       0.281800
     19 N6           1.4280     0.3540    -0.3920 nb         1 GD5      -0.245000
     20 C14          3.8100     0.5860    -0.5040 cc         1 GD5      -0.286900
     21 C15          3.9150     1.8480    -1.0540 cd         1 GD5       0.028600
     22 N7           5.1290     2.4350    -0.6910 nd         1 GD5      -0.296600
     23 C16          5.7230     1.5700     0.1160 cc         1 GD5      -0.065000
     24 N8           4.9620     0.4420     0.2130 na         1 GD5       0.157100
     25 C17          5.1550    -0.5450     1.1860 cc         1 GD5      -0.099000
     26 C18          6.3660    -0.4430     1.8740 cd         1 GD5      -0.146000
     27 C19          7.2890     0.6550     1.6900 cd         1 GD5      -0.098000
     28 C20          6.9460     1.6750     0.8320 cc         1 GD5      -0.079000
     29 Cl           4.1830    -2.4570    -1.3270 cl         1 GD5      -0.169000
     30 H11C        -3.7480     2.8000    -0.3980 hc         1 GD5       0.047700
     31 H12C        -3.7710     2.3900     1.3280 hc         1 GD5       0.047700
     32 H13C        -2.2300     2.6110     0.4920 hc         1 GD5       0.047700
     33 H4          -2.2470    -2.2990    -0.7470 h4         1 GD5       0.062100
     34 HA          -0.7150     1.2550    -0.0350 hn         1 GD5       0.515000
     35 H5          -5.7680     1.4830     0.2210 h1         1 GD5       0.052700
     36 H61C        -6.3120     0.5100    -1.9900 hc         1 GD5       0.066450
     37 H62C        -6.6930    -1.0450    -1.2530 hc         1 GD5       0.066450
     38 H91C        -6.3390    -1.2880     1.4140 hc         1 GD5       0.066450
     39 H92C        -5.7580     0.1230     2.2970 hc         1 GD5       0.066450
     40 H71C        -8.1670     1.6080    -0.7550 h1         1 GD5       0.031450
     41 H72C        -8.7890     0.2000    -1.6420 h1         1 GD5       0.031450
     42 H3          -9.6150     0.2940     0.6140 hn         1 GD5       0.414000
     43 H81C        -7.8410     1.3720     1.7900 h1         1 GD5       0.031450
     44 H82C        -8.2490    -0.1880     2.5350 h1         1 GD5       0.031450
     45 H11          1.4240    -3.3840    -1.2590 h4         1 GD5       0.036100
     46 H15          3.1940     2.3690    -1.6820 h4         1 GD5       0.234000
     47 H20          7.5710     2.5550     0.7130 ha         1 GD5       0.145000
     48 H17          4.4120    -1.3210     1.3060 h4         1 GD5       0.152000
     49 H18          6.6160    -1.2130     2.5970 ha         1 GD5       0.132000
     50 H19          8.2140     0.7000     2.2550 ha         1 GD5       0.125000
@<TRIPOS>BOND
     1     1     2 1   
     2     1    30 1   
     3     1    31 1   
     4     1    32 1   
     5     2     3 2   
     6     2     6 1   
     7     3     4 1   
     8     3    13 1   
     9     4     5 2   
    10     4    33 1   
    11     5     6 1   
    12     6     7 1   
    13     7     8 1   
    14     7    12 1   
    15     7    35 1   
    16     8     9 1   
    17     8    36 1   
    18     8    37 1   
    19     9    10 1   
    20     9    40 1   
    21     9    41 1   
    22    10    11 1   
    23    10    42 1   
    24    11    12 1   
    25    11    43 1   
    26    11    44 1   
    27    12    38 1   
    28    12    39 1   
    29    13    14 1   
    30    13    34 1   
    31    14    15 ar  
    32    14    19 ar  
    33    15    16 ar  
    34    16    17 ar  
    35    16    45 1   
    36    17    18 ar  
    37    17    29 1   
    38    18    19 ar  
    39    18    20 1   
    40    20    21 2   
    41    20    24 1   
    42    21    22 1   
    43    21    46 1   
    44    22    23 2   
    45    23    24 1   
    46    23    28 1   
    47    24    25 1   
    48    25    26 2   
    49    25    48 1   
    50    26    27 1   
    51    26    49 1   
    52    27    28 2   
    53    27    50 1   
    54    28    47 1   
@<TRIPOS>SUBSTRUCTURE
     1 GD5         1 TEMP              0 ****  ****    0 ROOT
