@<TRIPOS>MOLECULE
GD5
   50    54     1     0     0
SMALL
abcg2


@<TRIPOS>ATOM
      1 C1          -3.3790     2.2960     0.3540 c3         1 GD5      -0.022800
      2 C2          -3.2940     0.8710    -0.0620 cc         1 GD5      -0.187300
      3 C3          -2.1960     0.0880    -0.3790 cd         1 GD5       0.179000
      4 C4          -2.7280    -1.1800    -0.6800 cd         1 GD5       0.250900
      5 N1          -4.0420    -1.1710    -0.5560 nc         1 GD5      -0.510800
      6 N2          -4.3690     0.0610    -0.1950 na         1 GD5       0.141800
      7 C5          -5.7550     0.3930     0.0830 c6         1 GD5       0.103300
      8 C6          -6.6740     0.0150    -1.0740 c6         1 GD5      -0.087900
      9 C7          -8.1120     0.3690    -0.7190 c6         1 GD5       0.159800
     10 N3          -8.5020    -0.3150     0.5000 n7         1 GD5      -0.859400
     11 C8          -7.6930     0.1060     1.6300 c6         1 GD5       0.159800
     12 C9          -6.2330    -0.2470     1.3840 c6         1 GD5      -0.087900
     13 N4          -0.8830     0.5500    -0.3870 nu         1 GD5      -0.888900
     14 C10          0.2530    -0.1710    -0.4780 ca         1 GD5       0.396900
     15 N5           0.1720    -1.4930    -0.6350 nb         1 GD5      -0.226000
     16 C11          1.3150    -2.1410    -0.7550 ca         1 GD5       0.166900
     17 C12          2.5420    -1.5020    -0.7120 ca         1 GD5      -0.076000
     18 C13          2.5350    -0.1200    -0.4900 ca         1 GD5       0.281800
     19 N6           1.3870     0.5310    -0.3880 nb         1 GD5      -0.245000
     20 C14          3.7450     0.6880    -0.4240 cc         1 GD5      -0.286900
     21 C15          4.0570     1.8370    -1.1160 cd         1 GD5       0.028600
     22 N7           5.2990     2.2690    -0.8390 nd         1 GD5      -0.296600
     23 C16          5.7800     1.4160     0.0530 cc         1 GD5      -0.065000
     24 N8           4.8580     0.4250     0.3420 na         1 GD5       0.157100
     25 C17          5.0860    -0.5200     1.3000 cc         1 GD5      -0.099000
     26 C18          6.2800    -0.5360     1.9430 cd         1 GD5      -0.146000
     27 C19          7.2720     0.4280     1.6380 cd         1 GD5      -0.098000
     28 C20          7.0240     1.3980     0.7120 cc         1 GD5      -0.079000
     29 CL           3.9870    -2.3850    -1.0260 cl         1 GD5      -0.169000
     30 H11C        -4.0330     2.8740    -0.3000 hc         1 GD5       0.047700
     31 H12C        -3.7520     2.4010     1.3740 hc         1 GD5       0.047700
     32 H13C        -2.4000     2.7720     0.3250 hc         1 GD5       0.047700
     33 H4          -2.2080    -2.0750    -0.9750 h4         1 GD5       0.062100
     34 HA          -0.7440     1.5390    -0.2530 hn         1 GD5       0.515000
     35 H5          -5.7910     1.4790     0.2010 h1         1 GD5       0.052700
     36 H61C        -6.3700     0.5420    -1.9810 hc         1 GD5       0.066450
     37 H62C        -6.5990    -1.0560    -1.2700 hc         1 GD5       0.066450
     38 H91C        -6.1220    -1.3320     1.3150 hc         1 GD5       0.066450
     39 H92C        -5.6220     0.0980     2.2210 hc         1 GD5       0.066450
     40 H71C        -8.1990     1.4660    -0.6330 h1         1 GD5       0.031450
     41 H72C        -8.7750     0.0610    -1.5290 h1         1 GD5       0.031450
     42 H3          -9.4770    -0.1280     0.6950 hn         1 GD5       0.414000
     43 H81C        -7.7680     1.1900     1.8210 h1         1 GD5       0.031450
     44 H82C        -8.0470    -0.3990     2.5300 h1         1 GD5       0.031450
     45 H11          1.2620    -3.2130    -0.9100 h4         1 GD5       0.036100
     46 H15          3.4210     2.3380    -1.8310 h4         1 GD5       0.234000
     47 H20          7.7500     2.1620     0.4720 ha         1 GD5       0.145000
     48 H17          4.2860    -1.2090     1.5230 h4         1 GD5       0.152000
     49 H18          6.4550    -1.2890     2.6980 ha         1 GD5       0.132000
     50 H19          8.2210     0.3990     2.1550 ha         1 GD5       0.125000
@<TRIPOS>BOND
     1     1     2 1   
     2     1    30 1   
     3     1    31 1   
     4     1    32 1   
     5     2     3 2   
     6     2     6 1   
     7     3     4 1   
     8     3    13 1   
     9     4     5 2   
    10     4    33 1   
    11     5     6 1   
    12     6     7 1   
    13     7     8 1   
    14     7    12 1   
    15     7    35 1   
    16     8     9 1   
    17     8    36 1   
    18     8    37 1   
    19     9    10 1   
    20     9    40 1   
    21     9    41 1   
    22    10    11 1   
    23    10    42 1   
    24    11    12 1   
    25    11    43 1   
    26    11    44 1   
    27    12    38 1   
    28    12    39 1   
    29    13    14 1   
    30    13    34 1   
    31    14    15 ar  
    32    14    19 ar  
    33    15    16 ar  
    34    16    17 ar  
    35    16    45 1   
    36    17    18 ar  
    37    17    29 1   
    38    18    19 ar  
    39    18    20 1   
    40    20    21 2   
    41    20    24 1   
    42    21    22 1   
    43    21    46 1   
    44    22    23 2   
    45    23    24 1   
    46    23    28 1   
    47    24    25 1   
    48    25    26 2   
    49    25    48 1   
    50    26    27 1   
    51    26    49 1   
    52    27    28 2   
    53    27    50 1   
    54    28    47 1   
@<TRIPOS>SUBSTRUCTURE
     1 GD5         1 TEMP              0 ****  ****    0 ROOT
