@<TRIPOS>MOLECULE
GD7
   27    26     1     0     0
SMALL
No Charge or Current Charge


@<TRIPOS>ATOM
      1 C1          -2.2190    -0.5520     1.4100 c3         1 GD7      -0.083433
      2 C2          -3.1170     0.1690    -0.8430 c3         1 GD7      -0.083433
      3 C3          -1.5950    -1.8230    -0.6850 c3         1 GD7      -0.083433
      4 C4          -0.7380     1.9680     0.1990 c3         1 GD7      -0.113100
      5 C5          -0.6190     0.5120    -0.3270 c3         1 GD7       0.235300
      6 C6          -1.8770    -0.4080    -0.1010 c3         1 GD7      -0.052000
      7 OH           0.5090    -0.1170     0.3070 os         1 GD7      -0.594400
      8 P1           2.0360     0.3520     0.0330 p5         1 GD7       1.129800
      9 O11          2.4870     1.5570     0.7890 o          1 GD7      -0.543000
     10 H11         -2.4870     0.4140     1.8530 hc         1 GD7       0.036367
     11 H12         -3.0700    -1.2280     1.5540 hc         1 GD7       0.036367
     12 H13         -1.3710    -0.9610     1.9730 hc         1 GD7       0.036367
     13 H21         -2.8930     0.3460    -1.9020 hc         1 GD7       0.036367
     14 H22         -3.9630    -0.5280    -0.7900 hc         1 GD7       0.036367
     15 H23         -3.4500     1.1150    -0.4000 hc         1 GD7       0.036367
     16 H31         -0.7700    -2.3180    -0.1580 hc         1 GD7       0.036367
     17 H32         -2.4760    -2.4700    -0.5940 hc         1 GD7       0.036367
     18 H33         -1.3300    -1.7630    -1.7470 hc         1 GD7       0.036367
     19 H42         -1.6410     2.4560    -0.1820 hc         1 GD7       0.052367
     20 H43         -0.7700     1.9910     1.2940 hc         1 GD7       0.052367
     21 H5          -0.4440     0.5690    -1.4110 h1         1 GD7       0.027700
     22 H71          2.5350    -2.0100    -0.1020 hc         1 GD7       0.083700
     23 H72          3.9990    -1.0450     0.2690 hc         1 GD7       0.083700
     24 H73          2.7910    -1.3710     1.5520 hc         1 GD7       0.083700
     25 HP1          2.1350     0.4080    -1.3800 hp         1 GD7      -0.116400
     26 H41          0.1080     2.5780    -0.1330 hc         1 GD7       0.052367
     27 C7           2.9340    -1.1760     0.4850 c3         1 GD7      -0.458100
@<TRIPOS>BOND
     1     1     6 1   
     2     1    10 1   
     3     1    11 1   
     4     1    12 1   
     5     2     6 1   
     6     2    13 1   
     7     2    14 1   
     8     2    15 1   
     9     3     6 1   
    10     3    16 1   
    11     3    17 1   
    12     3    18 1   
    13     4     5 1   
    14     4    19 1   
    15     4    20 1   
    16     4    26 1   
    17     5     6 1   
    18     5     7 1   
    19     5    21 1   
    20     7     8 1   
    21     8     9 2   
    22     8    25 1   
    23     8    27 1   
    24    22    27 1   
    25    23    27 1   
    26    24    27 1   
@<TRIPOS>SUBSTRUCTURE
     1 GD7         1 TEMP              0 ****  ****    0 ROOT
