@<TRIPOS>MOLECULE
GD7
   27    26     1     0     0
SMALL
bcc


@<TRIPOS>ATOM
      1 C1          -2.1590    -0.7040     1.3360 c3         1 GD7      -0.083433
      2 C2          -3.0270     0.2400    -0.8060 c3         1 GD7      -0.083433
      3 C3          -1.4000    -1.6430    -0.8480 c3         1 GD7      -0.083433
      4 C4          -0.9020     2.0040     0.4490 c3         1 GD7      -0.113100
      5 C5          -0.6440     0.6510    -0.1880 c3         1 GD7       0.212100
      6 C6          -1.8020    -0.3610    -0.1120 c3         1 GD7      -0.052000
      7 OH           0.5070     0.0630     0.4490 os         1 GD7      -0.571200
      8 P1           1.9230     0.0440    -0.3170 p5         1 GD7       1.201300
      9 O11          2.5550     1.3760    -0.5500 o          1 GD7      -0.772300
     10 H11         -2.4940     0.1730     1.8920 hc         1 GD7       0.036367
     11 H12         -2.9740    -1.4300     1.3570 hc         1 GD7       0.036367
     12 H13         -1.3160    -1.1410     1.8710 hc         1 GD7       0.036367
     13 H21         -2.8000     0.5530    -1.8280 hc         1 GD7       0.036367
     14 H22         -3.8280    -0.4990    -0.8590 hc         1 GD7       0.036367
     15 H23         -3.4170     1.1050    -0.2690 hc         1 GD7       0.036367
     16 H31         -0.5610    -2.1470    -0.3660 hc         1 GD7       0.036367
     17 H32         -2.2350    -2.3460    -0.8620 hc         1 GD7       0.036367
     18 H33         -1.1230    -1.4420    -1.8850 hc         1 GD7       0.036367
     19 H42         -1.7260     2.5170    -0.0430 hc         1 GD7       0.052367
     20 H43         -1.1420     1.9160     1.5090 hc         1 GD7       0.052367
     21 H5          -0.4280     0.8100    -1.2550 h1         1 GD7       0.027700
     22 H71          2.3360    -2.0340     0.8350 hc         1 GD7       0.083700
     23 H72          3.8250    -1.2890     0.2300 hc         1 GD7       0.083700
     24 H73          3.0470    -0.6460     1.6830 hc         1 GD7       0.083700
     25 HP1          1.6440    -0.6470    -1.5150 hp         1 GD7      -0.116400
     26 H41         -0.0190     2.6360     0.3510 hc         1 GD7       0.052367
     27 C7           2.8650    -1.0920     0.7050 c3         1 GD7      -0.300300
@<TRIPOS>BOND
     1     1     6 1   
     2     1    10 1   
     3     1    11 1   
     4     1    12 1   
     5     2     6 1   
     6     2    13 1   
     7     2    14 1   
     8     2    15 1   
     9     3     6 1   
    10     3    16 1   
    11     3    17 1   
    12     3    18 1   
    13     4     5 1   
    14     4    19 1   
    15     4    20 1   
    16     4    26 1   
    17     5     6 1   
    18     5     7 1   
    19     5    21 1   
    20     7     8 1   
    21     8     9 2   
    22     8    25 1   
    23     8    27 1   
    24    22    27 1   
    25    23    27 1   
    26    24    27 1   
@<TRIPOS>SUBSTRUCTURE
     1 GD7         1 TEMP              0 ****  ****    0 ROOT
