@<TRIPOS>MOLECULE
GD8
   27    26     1     0     0
SMALL
abcg2


@<TRIPOS>ATOM
      1 C7           3.0330    -0.3790     0.6420 c3         1 GD8      -0.084100
      2 C4           1.7620    -0.4040    -0.2100 c3         1 GD8      -0.046000
      3 C6           2.0870     0.0690    -1.6270 c3         1 GD8      -0.084100
      4 C5           1.2400    -1.8430    -0.2630 c3         1 GD8      -0.084100
      5 C2           0.7050     0.4910     0.4630 c3         1 GD8       0.229300
      6 C3           1.0770     1.9540     0.6220 c3         1 GD8      -0.116100
      7 O2          -0.5100     0.4190    -0.3130 os         1 GD8      -0.595400
      8 P           -1.9180     0.1740     0.4300 p5         1 GD8       1.127800
      9 C1          -3.0710     0.3620    -0.9320 c3         1 GD8      -0.457100
     10 O1          -2.0320    -1.0970     1.2050 o          1 GD8      -0.544000
     11 H7           3.5040     0.6050     0.6540 hc         1 GD8       0.037811
     12 H7A          2.8300    -0.6650     1.6780 hc         1 GD8       0.037811
     13 H7B          3.7660    -1.0830     0.2450 hc         1 GD8       0.037811
     14 H6           2.8270    -0.5950    -2.0790 hc         1 GD8       0.037811
     15 H6A          1.2060     0.0610    -2.2690 hc         1 GD8       0.037811
     16 H6B          2.5080     1.0750    -1.6390 hc         1 GD8       0.037811
     17 H5           0.9400    -2.1960     0.7270 hc         1 GD8       0.037811
     18 H5A          0.3820    -1.9450    -0.9270 hc         1 GD8       0.037811
     19 H5B          2.0210    -2.5110    -0.6330 hc         1 GD8       0.037811
     20 H2           0.5210     0.0700     1.4610 h1         1 GD8       0.039700
     21 H3           0.2570     2.5070     1.0820 hc         1 GD8       0.046367
     22 H3A          1.9420     2.0660     1.2750 hc         1 GD8       0.046367
     23 H3B          1.3080     2.4260    -0.3330 hc         1 GD8       0.046367
     24 H1          -2.9290    -0.4430    -1.6520 hc         1 GD8       0.083700
     25 H1A         -4.0880     0.3090    -0.5460 hc         1 GD8       0.083700
     26 H1B         -2.9350     1.3200    -1.4320 hc         1 GD8       0.083700
     27 H1P         -2.0880     1.3190     1.2360 hp         1 GD8      -0.116400
@<TRIPOS>BOND
     1     1     2 1   
     2     1    11 1   
     3     1    12 1   
     4     1    13 1   
     5     2     3 1   
     6     2     4 1   
     7     2     5 1   
     8     3    14 1   
     9     3    15 1   
    10     3    16 1   
    11     4    17 1   
    12     4    18 1   
    13     4    19 1   
    14     5     6 1   
    15     5     7 1   
    16     5    20 1   
    17     6    21 1   
    18     6    22 1   
    19     6    23 1   
    20     7     8 1   
    21     8     9 1   
    22     8    10 2   
    23     8    27 1   
    24     9    24 1   
    25     9    25 1   
    26     9    26 1   
@<TRIPOS>SUBSTRUCTURE
     1 GD8         1 TEMP              0 ****  ****    0 ROOT
