@<TRIPOS>MOLECULE
GD8
   27    26     1     0     0
SMALL
No Charge or Current Charge


@<TRIPOS>ATOM
      1 C7           3.1490    -0.3870     0.5780 c3         1 GD8      -0.084100
      2 C4           1.8090    -0.4610    -0.2090 c3         1 GD8      -0.046000
      3 C6           2.0240     0.1490    -1.6240 c3         1 GD8      -0.084100
      4 C5           1.4350    -1.9630    -0.3650 c3         1 GD8      -0.084100
      5 C2           0.6650     0.2830     0.5780 c3         1 GD8       0.229300
      6 C3           0.8870     1.8000     0.8270 c3         1 GD8      -0.116100
      7 O2          -0.5610     0.1180    -0.1580 os         1 GD8      -0.595400
      8 P           -1.9980     0.5350     0.4620 p5         1 GD8       1.127800
      9 C1          -3.0630     0.3360    -1.0110 c3         1 GD8      -0.457100
     10 O1          -2.4410    -0.2780     1.6320 o          1 GD8      -0.544000
     11 H7           3.5350     0.6380     0.6240 hc         1 GD8       0.037811
     12 H7A          3.0220    -0.7510     1.6050 hc         1 GD8       0.037811
     13 H7B          3.9190    -1.0010     0.0960 hc         1 GD8       0.037811
     14 H6           2.7930    -0.4080    -2.1740 hc         1 GD8       0.037811
     15 H6A          1.1010     0.1160    -2.2160 hc         1 GD8       0.037811
     16 H6B          2.3530     1.1930    -1.5650 hc         1 GD8       0.037811
     17 H5           1.2570    -2.4270     0.6130 hc         1 GD8       0.037811
     18 H5A          0.5290    -2.0910    -0.9700 hc         1 GD8       0.037811
     19 H5B          2.2410    -2.5200    -0.8590 hc         1 GD8       0.037811
     20 H2           0.5720    -0.2010     1.5600 h1         1 GD8       0.039700
     21 H3           0.1120     2.2130     1.4830 hc         1 GD8       0.046367
     22 H3A          1.8450     1.9840     1.3240 hc         1 GD8       0.046367
     23 H3B          0.8740     2.3630    -0.1140 hc         1 GD8       0.046367
     24 H1          -3.0670    -0.7180    -1.3090 hc         1 GD8       0.083700
     25 H1A         -4.0800     0.6590    -0.7670 hc         1 GD8       0.083700
     26 H1B         -2.6630     0.9500    -1.8250 hc         1 GD8       0.083700
     27 H1P         -1.9060     1.9370     0.6510 hp         1 GD8      -0.116400
@<TRIPOS>BOND
     1     1     2 1   
     2     1    11 1   
     3     1    12 1   
     4     1    13 1   
     5     2     3 1   
     6     2     4 1   
     7     2     5 1   
     8     3    14 1   
     9     3    15 1   
    10     3    16 1   
    11     4    17 1   
    12     4    18 1   
    13     4    19 1   
    14     5     6 1   
    15     5     7 1   
    16     5    20 1   
    17     6    21 1   
    18     6    22 1   
    19     6    23 1   
    20     7     8 1   
    21     8     9 1   
    22     8    10 2   
    23     8    27 1   
    24     9    24 1   
    25     9    25 1   
    26     9    26 1   
@<TRIPOS>SUBSTRUCTURE
     1 GD8         1 TEMP              0 ****  ****    0 ROOT
