@<TRIPOS>MOLECULE
GD9
   62    67     1     0     0
SMALL
abcg2


@<TRIPOS>ATOM
      1 O3          19.9160    59.3950    24.8170 os         1 GD9      -0.449000
      2 C4          22.2620    61.8340    22.3120 ca         1 GD9       0.436900
      3 C5          21.2690    65.4730    21.2380 cc         1 GD9      -0.044600
      4 C6          22.4870    65.1460    20.7350 cd         1 GD9      -0.272800
      5 N1          24.0830    63.2800    20.7450 nb         1 GD9      -0.181000
      6 C7          20.5000    66.7480    21.0550 c3         1 GD9       0.231000
      7 C8          25.5780    61.4020    20.8290 cp         1 GD9      -0.069500
      8 N2          23.4540    61.3320    21.9540 nb         1 GD9      -0.272000
      9 C9          19.7220    68.3920    19.4800 c6         1 GD9       0.159300
     10 C10         19.5870    68.7380    18.0070 c6         1 GD9       0.210800
     11 C11         19.2790    66.3560    17.5150 c6         1 GD9       0.210800
     12 C12         19.4160    66.0640    18.9980 c6         1 GD9       0.159300
     13 N3          21.4660    61.0440    23.0860 nh         1 GD9      -0.776300
     14 C13         16.6760    69.0970    16.3650 c3         1 GD9      -0.350100
     15 C14         21.8930    59.6830    23.4190 c6         1 GD9       0.183300
     16 C15         21.3360    59.2790    24.7720 c6         1 GD9       0.140100
     17 N4          20.2780    67.0520    19.6430 n3         1 GD9      -0.713600
     18 O2          18.9790    68.9960    15.1440 o          1 GD9      -0.549500
     19 O1          17.6340    66.9140    15.2700 o          1 GD9      -0.549500
     20 N5          18.7520    67.7200    17.3500 n3         1 GD9      -0.775500
     21 S1          20.5710    64.1810    22.1630 ss         1 GD9       0.062400
     22 C2          22.9010    63.8260    21.0940 ca         1 GD9       0.160800
     23 C1          21.9430    63.1490    21.8780 ca         1 GD9      -0.321000
     24 C3          24.2990    62.0530    21.2030 cp         1 GD9       0.235500
     25 C18         26.2330    61.7690    19.6620 ca         1 GD9      -0.104000
     26 C19         27.4330    61.1580    19.2520 ca         1 GD9      -0.083000
     27 C20         28.0300    60.1610    19.9970 ca         1 GD9      -0.120000
     28 C21         27.3860    59.7930    21.1830 ca         1 GD9      -0.044200
     29 N6          27.7240    58.8850    22.1380 na         1 GD9      -0.077400
     30 C22         26.1730    60.3860    21.6130 ca         1 GD9      -0.192900
     31 C23         25.8970    59.7450    22.8560 cc         1 GD9       0.371800
     32 N7          26.8290    58.8560    23.1520 nd         1 GD9      -0.523100
     33 C16         19.5240    60.7350    24.5440 c6         1 GD9       0.140100
     34 C17         20.0150    61.1950    23.1810 c6         1 GD9       0.183300
     35 H6          23.0830    65.8060    20.1220 ha         1 GD9       0.229000
     36 H7          19.5490    66.6890    21.6100 h1         1 GD9       0.048200
     37 H7A         21.0690    67.5730    21.4880 h1         1 GD9       0.048200
     38 H9          20.3910    69.1120    19.9530 h1         1 GD9       0.045200
     39 H9A         18.7340    68.4760    19.9640 h1         1 GD9       0.045200
     40 H10         19.1200    69.7150    17.9060 h1         1 GD9       0.063700
     41 H10A        20.5760    68.7750    17.5390 h1         1 GD9       0.063700
     42 H11         20.2550    66.2600    17.0260 h1         1 GD9       0.063700
     43 H11A        18.5880    65.6520    17.0620 h1         1 GD9       0.063700
     44 H12         18.4160    66.0500    19.4620 h1         1 GD9       0.045200
     45 H12A        19.8560    65.0730    19.1160 h1         1 GD9       0.045200
     46 H13         16.0010    68.4620    16.9350 h1         1 GD9       0.102033
     47 H13A        17.0010    69.9510    16.9540 h1         1 GD9       0.102033
     48 H13B        16.2110    69.4330    15.4400 h1         1 GD9       0.102033
     49 H14         21.5420    58.9870    22.6470 h1         1 GD9       0.063700
     50 H14A        22.9750    59.6420    23.4430 h1         1 GD9       0.063700
     51 H15         21.7790    59.9040    25.5570 h1         1 GD9       0.058200
     52 H15A        21.5750    58.2350    24.9730 h1         1 GD9       0.058200
     53 H18         25.7970    62.5420    19.0450 ha         1 GD9       0.134000
     54 H19         27.8920    61.4770    18.3250 ha         1 GD9       0.117000
     55 H20         28.9530    59.6890    19.6850 ha         1 GD9       0.120000
     56 HN6         28.5280    58.2800    22.1610 hn         1 GD9       0.375000
     57 H23         25.0740    59.9080    23.5280 h4         1 GD9       0.054800
     58 H16         18.4350    60.7610    24.5700 h1         1 GD9       0.058200
     59 H16A        19.9170    61.4020    25.3220 h1         1 GD9       0.058200
     60 H17         19.7120    62.2270    23.0490 h1         1 GD9       0.063700
     61 H17A        19.5370    60.6000    22.3940 h1         1 GD9       0.063700
     62 S2          18.0900    68.1340    15.9010 s6         1 GD9       1.226100
@<TRIPOS>BOND
     1     1    16 1   
     2     1    33 1   
     3     2     8 ar  
     4     2    13 1   
     5     2    23 ar  
     6     3     4 2   
     7     3     6 1   
     8     3    21 1   
     9     4    22 1   
    10     4    35 1   
    11     5    22 ar  
    12     5    24 ar  
    13     6    17 1   
    14     6    36 1   
    15     6    37 1   
    16     7    24 1   
    17     7    25 ar  
    18     7    30 ar  
    19     8    24 ar  
    20     9    10 1   
    21     9    17 1   
    22     9    38 1   
    23     9    39 1   
    24    10    20 1   
    25    10    40 1   
    26    10    41 1   
    27    11    12 1   
    28    11    20 1   
    29    11    42 1   
    30    11    43 1   
    31    12    17 1   
    32    12    44 1   
    33    12    45 1   
    34    13    15 1   
    35    13    34 1   
    36    14    46 1   
    37    14    47 1   
    38    14    48 1   
    39    14    62 1   
    40    15    16 1   
    41    15    49 1   
    42    15    50 1   
    43    16    51 1   
    44    16    52 1   
    45    18    62 2   
    46    19    62 2   
    47    20    62 1   
    48    21    23 1   
    49    22    23 ar  
    50    25    26 ar  
    51    25    53 1   
    52    26    27 ar  
    53    26    54 1   
    54    27    28 ar  
    55    27    55 1   
    56    28    29 1   
    57    28    30 ar  
    58    29    32 1   
    59    29    56 1   
    60    30    31 1   
    61    31    32 2   
    62    31    57 1   
    63    33    34 1   
    64    33    58 1   
    65    33    59 1   
    66    34    60 1   
    67    34    61 1   
@<TRIPOS>SUBSTRUCTURE
     1 GD9         1 TEMP              0 ****  ****    0 ROOT
