@<TRIPOS>MOLECULE
GD9
   62    67     1     0     0
SMALL
No Charge or Current Charge


@<TRIPOS>ATOM
      1 O3          20.1270    59.4160    25.1770 os         1 GD9      -0.449000
      2 C4          22.4310    61.9040    22.5290 ca         1 GD9       0.436900
      3 C5          21.1560    65.4190    21.3790 cc         1 GD9      -0.044600
      4 C6          22.3500    65.0730    20.7730 cd         1 GD9      -0.272800
      5 N1          24.0190    63.2620    20.7170 nb         1 GD9      -0.181000
      6 C7          20.3520    66.6830    21.1940 c3         1 GD9       0.231000
      7 C8          25.6520    61.4310    20.7620 cp         1 GD9      -0.069500
      8 N2          23.5930    61.3590    22.1110 nb         1 GD9      -0.272000
      9 C9          19.4680    68.3640    19.6050 c6         1 GD9       0.159300
     10 C10         19.2560    68.7390    18.1050 c6         1 GD9       0.210800
     11 C11         19.1200    66.3620    17.5330 c6         1 GD9       0.210800
     12 C12         19.3330    65.9900    19.0330 c6         1 GD9       0.159300
     13 N3          21.6650    61.1750    23.4600 nh         1 GD9      -0.776300
     14 C13         17.0310    69.5090    15.8610 c3         1 GD9      -0.350100
     15 C14         22.3350    60.2780    24.4600 c6         1 GD9       0.183300
     16 C15         21.3920    59.9360    25.6530 c6         1 GD9       0.140100
     17 N4          20.1170    67.0290    19.7710 n3         1 GD9      -0.713600
     18 O2          19.3650    68.4730    15.0810 o          1 GD9      -0.549500
     19 O1          17.3040    66.9840    15.2140 o          1 GD9      -0.549500
     20 N5          18.4790    67.6990    17.3650 n3         1 GD9      -0.775500
     21 S1          20.6040    64.1320    22.4930 ss         1 GD9       0.062400
     22 C2          22.8660    63.7890    21.1530 ca         1 GD9       0.160800
     23 C1          22.0410    63.1620    22.0500 ca         1 GD9      -0.321000
     24 C3          24.3470    62.0460    21.2180 cp         1 GD9       0.235500
     25 C18         26.5990    62.1830    19.9980 ca         1 GD9      -0.104000
     26 C19         27.8250    61.6260    19.5660 ca         1 GD9      -0.083000
     27 C20         28.1510    60.2950    19.8810 ca         1 GD9      -0.120000
     28 C21         27.2220    59.5630    20.6260 ca         1 GD9      -0.044200
     29 N6          27.2900    58.2560    21.0540 na         1 GD9      -0.077400
     30 C22         26.0330    60.0880    21.0500 ca         1 GD9      -0.192900
     31 C23         25.4000    58.9880    21.7560 cc         1 GD9       0.371800
     32 N7          26.1520    57.8750    21.7660 nd         1 GD9      -0.523100
     33 C16         19.4310    60.3520    24.3180 c6         1 GD9       0.140100
     34 C17         20.2960    60.7050    23.0720 c6         1 GD9       0.183300
     35 H6          22.8460    65.7220    20.0580 ha         1 GD9       0.229000
     36 H7          19.3940    66.5740    21.7200 h1         1 GD9       0.048200
     37 H7A         20.8970    67.4990    21.6890 h1         1 GD9       0.048200
     38 H9          20.0790    69.1460    20.0780 h1         1 GD9       0.045200
     39 H9A         18.4890    68.3730    20.1060 h1         1 GD9       0.045200
     40 H10         18.7450    69.7110    18.0720 h1         1 GD9       0.063700
     41 H10A        20.2450    68.8810    17.6420 h1         1 GD9       0.063700
     42 H11         20.0970    66.3400    17.0290 h1         1 GD9       0.063700
     43 H11A        18.5050    65.5750    17.0740 h1         1 GD9       0.063700
     44 H12         18.3470    65.8570    19.5020 h1         1 GD9       0.045200
     45 H12A        19.8430    65.0170    19.0770 h1         1 GD9       0.045200
     46 H13         16.2060    69.2330    16.5250 h1         1 GD9       0.102033
     47 H13A        17.6110    70.3440    16.2640 h1         1 GD9       0.102033
     48 H13B        16.6710    69.7330    14.8520 h1         1 GD9       0.102033
     49 H14         22.6490    59.3410    23.9790 h1         1 GD9       0.063700
     50 H14A        23.2390    60.7610    24.8610 h1         1 GD9       0.063700
     51 H15         21.2090    60.8390    26.2530 h1         1 GD9       0.058200
     52 H15A        21.8690    59.1880    26.3020 h1         1 GD9       0.058200
     53 H18         26.3920    63.2170    19.7340 ha         1 GD9       0.134000
     54 H19         28.5210    62.2300    18.9880 ha         1 GD9       0.117000
     55 H20         29.0890    59.8530    19.5540 ha         1 GD9       0.120000
     56 HN6         28.0610    57.6090    20.8910 hn         1 GD9       0.375000
     57 H23         24.4420    58.9210    22.2540 h4         1 GD9       0.054800
     58 H16         18.4790    59.9070    23.9970 h1         1 GD9       0.058200
     59 H16A        19.2050    61.2660    24.8860 h1         1 GD9       0.058200
     60 H17         19.7660    61.4680    22.4850 h1         1 GD9       0.063700
     61 H17A        20.3750    59.8120    22.4350 h1         1 GD9       0.063700
     62 S2          18.1100    68.0930    15.7360 s6         1 GD9       1.226100
@<TRIPOS>BOND
     1     1    16 1   
     2     1    33 1   
     3     2     8 ar  
     4     2    13 1   
     5     2    23 ar  
     6     3     4 2   
     7     3     6 1   
     8     3    21 1   
     9     4    22 1   
    10     4    35 1   
    11     5    22 ar  
    12     5    24 ar  
    13     6    17 1   
    14     6    36 1   
    15     6    37 1   
    16     7    24 1   
    17     7    25 ar  
    18     7    30 ar  
    19     8    24 ar  
    20     9    10 1   
    21     9    17 1   
    22     9    38 1   
    23     9    39 1   
    24    10    20 1   
    25    10    40 1   
    26    10    41 1   
    27    11    12 1   
    28    11    20 1   
    29    11    42 1   
    30    11    43 1   
    31    12    17 1   
    32    12    44 1   
    33    12    45 1   
    34    13    15 1   
    35    13    34 1   
    36    14    46 1   
    37    14    47 1   
    38    14    48 1   
    39    14    62 1   
    40    15    16 1   
    41    15    49 1   
    42    15    50 1   
    43    16    51 1   
    44    16    52 1   
    45    18    62 2   
    46    19    62 2   
    47    20    62 1   
    48    21    23 1   
    49    22    23 ar  
    50    25    26 ar  
    51    25    53 1   
    52    26    27 ar  
    53    26    54 1   
    54    27    28 ar  
    55    27    55 1   
    56    28    29 1   
    57    28    30 ar  
    58    29    32 1   
    59    29    56 1   
    60    30    31 1   
    61    31    32 2   
    62    31    57 1   
    63    33    34 1   
    64    33    58 1   
    65    33    59 1   
    66    34    60 1   
    67    34    61 1   
@<TRIPOS>SUBSTRUCTURE
     1 GD9         1 TEMP              0 ****  ****    0 ROOT
