@<TRIPOS>MOLECULE
GDA
   25    25     1     0     0
SMALL
bcc


@<TRIPOS>ATOM
      1 C1          -2.5660     1.3700     0.0810 c6         1 GDA       0.345900
      2 C2          -1.8350     0.6540    -1.0500 c6         1 GDA       0.140100
      3 C3          -0.3300     0.6990    -0.8250 c6         1 GDA       0.070100
      4 C4           0.1440     2.1430    -0.6250 c6         1 GDA       0.110500
      5 C5          -0.6850     2.8010     0.4780 c6         1 GDA       0.114100
      6 C6          -0.4090     4.2890     0.6010 c3         1 GDA       0.147400
      7 N4           1.5570     2.2630    -0.3130 n8         1 GDA      -0.889800
      8 O2          -2.3290    -0.6570    -1.1410 oh         1 GDA      -0.578800
      9 O3           0.2770     0.0990    -1.9520 oh         1 GDA      -0.605800
     10 O5          -2.0750     2.6780     0.2030 os         1 GDA      -0.452600
     11 O6          -1.1150     4.8870     1.6630 oh         1 GDA      -0.593800
     12 O1          -2.4190     0.6300     1.2470 oh         1 GDA      -0.599800
     13 HA_1        -3.6240     1.4940    -0.1790 h2         1 GDA       0.076700
     14 HA          -2.0560     1.2200    -1.9700 h1         1 GDA       0.053700
     15 HB          -0.0870     0.1310     0.0850 h1         1 GDA       0.057700
     16 HC          -0.0350     2.6930    -1.5580 h1         1 GDA       0.080700
     17 H5          -0.4450     2.3210     1.4380 h1         1 GDA       0.059700
     18 H6C1        -0.6300     4.7760    -0.3590 h1         1 GDA       0.058700
     19 H6C2         0.6530     4.4300     0.7990 h1         1 GDA       0.058700
     20 H4N1         2.1160     1.9720    -1.1040 hn         1 GDA       0.346300
     21 H4N2         1.8000     1.6450     0.4530 hn         1 GDA       0.346300
     22 H2          -1.8530    -1.0970    -1.8520 ho         1 GDA       0.420000
     23 H3           1.1260    -0.2660    -1.6910 ho         1 GDA       0.408000
     24 H6          -2.0550     4.7670     1.4980 ho         1 GDA       0.409000
     25 H1          -3.0160     0.9810     1.9170 ho         1 GDA       0.417000
@<TRIPOS>BOND
     1     1     2 1   
     2     1    10 1   
     3     1    12 1   
     4     1    13 1   
     5     2     3 1   
     6     2     8 1   
     7     2    14 1   
     8     3     4 1   
     9     3     9 1   
    10     3    15 1   
    11     4     5 1   
    12     4     7 1   
    13     4    16 1   
    14     5     6 1   
    15     5    10 1   
    16     5    17 1   
    17     6    11 1   
    18     6    18 1   
    19     6    19 1   
    20     7    20 1   
    21     7    21 1   
    22     8    22 1   
    23     9    23 1   
    24    11    24 1   
    25    12    25 1   
@<TRIPOS>SUBSTRUCTURE
     1 GDA         1 TEMP              0 ****  ****    0 ROOT
