@<TRIPOS>MOLECULE
GDA
   25    25     1     0     0
SMALL
No Charge or Current Charge


@<TRIPOS>ATOM
      1 C1          -2.6430     1.3770     0.1190 c6         1 GDA       0.392300
      2 C2          -1.9050     0.6610    -1.0730 c6         1 GDA       0.163300
      3 C3          -0.3660     0.6680    -0.8430 c6         1 GDA       0.093300
      4 C4           0.1240     2.1410    -0.6400 c6         1 GDA       0.110500
      5 C5          -0.6850     2.8040     0.5260 c6         1 GDA       0.137300
      6 C6          -0.3540     4.3170     0.7010 c3         1 GDA       0.170600
      7 N4           1.6000     2.2150    -0.4100 n8         1 GDA      -1.000200
      8 O2          -2.3460    -0.6950    -1.3070 oh         1 GDA      -0.701000
      9 O3           0.3000     0.0230    -1.9540 oh         1 GDA      -0.728000
     10 O5          -2.1230     2.7120     0.2840 os         1 GDA      -0.499000
     11 O6          -1.3630     4.9770     1.4850 oh         1 GDA      -0.716000
     12 O1          -2.4720     0.7130     1.3740 oh         1 GDA      -0.722000
     13 HA_1        -3.7160     1.4370    -0.1240 h2         1 GDA       0.076700
     14 HA          -2.1070     1.2600    -1.9740 h1         1 GDA       0.053700
     15 HB          -0.1610     0.1100     0.0850 h1         1 GDA       0.057700
     16 HC          -0.0940     2.7120    -1.5580 h1         1 GDA       0.080700
     17 H5          -0.4470     2.2950     1.4720 h1         1 GDA       0.059700
     18 H6C1        -0.2930     4.7750    -0.2960 h1         1 GDA       0.058700
     19 H6C2         0.6350     4.4160     1.1700 h1         1 GDA       0.058700
     20 H4N1         2.0950     1.9700    -1.2760 hn         1 GDA       0.401500
     21 H4N2         1.8860     1.4900     0.2600 hn         1 GDA       0.401500
     22 H2          -1.5820    -1.1030    -1.7830 ho         1 GDA       0.519000
     23 H3           1.2380    -0.1200    -1.6890 ho         1 GDA       0.507000
     24 H6          -2.1880     4.4780     1.2680 ho         1 GDA       0.508000
     25 H1          -2.9270     1.2910     2.0230 ho         1 GDA       0.516000
@<TRIPOS>BOND
     1     1     2 1   
     2     1    10 1   
     3     1    12 1   
     4     1    13 1   
     5     2     3 1   
     6     2     8 1   
     7     2    14 1   
     8     3     4 1   
     9     3     9 1   
    10     3    15 1   
    11     4     5 1   
    12     4     7 1   
    13     4    16 1   
    14     5     6 1   
    15     5    10 1   
    16     5    17 1   
    17     6    11 1   
    18     6    18 1   
    19     6    19 1   
    20     7    20 1   
    21     7    21 1   
    22     8    22 1   
    23     9    23 1   
    24    11    24 1   
    25    12    25 1   
@<TRIPOS>SUBSTRUCTURE
     1 GDA         1 TEMP              0 ****  ****    0 ROOT
