@<TRIPOS>MOLECULE
GDC
   62    65     1     0     0
SMALL
No Charge or Current Charge


@<TRIPOS>ATOM
      1 O3P         14.1950    41.5870     9.1890 o          1 GDC      -0.869500
      2 P           15.4850    41.6890     8.4440 p5         1 GDC       1.539800
      3 O1P         15.4210    40.8570     7.2070 o          1 GDC      -0.869500
      4 O2P         16.6540    41.2820     9.4160 os         1 GDC      -0.725800
      5 O5          15.7870    43.2430     8.1520 os         1 GDC      -0.635400
      6 C5          16.3360    43.6710     6.8920 c3         1 GDC       0.226600
      7 C4          16.2760    45.2240     6.7860 c5         1 GDC       0.166300
      8 O4          14.9280    45.6470     6.4300 os         1 GDC      -0.464000
      9 C3          16.6610    46.0000     8.1000 c5         1 GDC       0.123300
     10 O3          17.2940    47.2680     7.8540 oh         1 GDC      -0.751000
     11 C2          15.2580    46.2480     8.7230 c5         1 GDC       0.095300
     12 O2          15.3040    47.3250     9.6940 oh         1 GDC      -0.750000
     13 C1          14.4620    46.5890     7.4190 c5         1 GDC       0.320300
     14 N9          12.9990    46.5800     7.4680 na         1 GDC      -0.185500
     15 C8          12.1820    47.5550     6.9330 cc         1 GDC       0.392400
     16 N7          10.8980    47.3090     7.1750 nd         1 GDC      -0.631000
     17 C6           9.7540    45.3230     8.4540 c          1 GDC       0.522500
     18 O6           8.5660    45.6070     8.3690 o          1 GDC      -0.594000
     19 C7          10.8860    46.1200     7.8970 cd         1 GDC       0.034500
     20 N1          10.1790    44.1960     9.0920 ns         1 GDC      -0.474400
     21 C11         11.4790    43.8530     9.2040 cd         1 GDC       0.730800
     22 N2          11.7490    42.7180     9.8160 nv         1 GDC      -1.032200
     23 N3          12.5110    44.5170     8.7520 nc         1 GDC      -0.653100
     24 C9          12.1720    45.6740     8.0870 cc         1 GDC       0.199400
     25 C12         18.6540    39.0960     9.6050 c6         1 GDC       0.471300
     26 C2A         18.5760    38.1980    10.8920 c6         1 GDC       0.137300
     27 C10         18.4950    36.6950    10.4740 c6         1 GDC       0.123300
     28 C4A         19.6790    36.3180     9.5290 c6         1 GDC       0.121300
     29 C5A         19.6790    37.3210     8.3270 c6         1 GDC       0.113300
     30 C6A         20.8310    37.1040     7.3010 c3         1 GDC       0.175600
     31 O1          18.8200    40.4690     9.9400 os         1 GDC      -0.553400
     32 O10         17.4630    38.5210    11.7620 oh         1 GDC      -0.672000
     33 O9          18.5130    35.8500    11.6380 oh         1 GDC      -0.660000
     34 O8          20.9110    36.3510    10.2820 oh         1 GDC      -0.692000
     35 O7          19.7800    38.6880     8.7980 os         1 GDC      -0.473000
     36 O6A         20.9100    38.2150     6.3990 oh         1 GDC      -0.738000
     37 P1          18.1320    41.5130     8.9370 p5         1 GDC       1.489800
     38 O1X         18.4090    41.1380     7.5210 o          1 GDC      -0.857000
     39 O2X         18.6090    42.8900     9.2600 o          1 GDC      -0.857000
     40 H5'1        15.7860    43.2370     6.0460 h1         1 GDC       0.053200
     41 H5'2        17.3860    43.3710     6.7970 h1         1 GDC       0.053200
     42 H4          16.9450    45.5160     5.9660 h1         1 GDC       0.051700
     43 H3          17.2780    45.3700     8.7610 h1         1 GDC       0.138700
     44 HA          16.8990    47.8470     8.5560 ho         1 GDC       0.506000
     45 H2          14.8830    45.3200     9.1760 h1         1 GDC       0.130700
     46 HB          14.4600    47.2970    10.2080 ho         1 GDC       0.524000
     47 H1          14.7380    47.5990     7.0910 h2         1 GDC       0.049700
     48 H8          12.5780    48.4070     6.3930 h5         1 GDC       0.042100
     49 H11          9.4670    43.6170     9.5070 hn         1 GDC       0.303500
     50 H2N1        11.0460    41.9980     9.7470 hn         1 GDC       0.535500
     51 H2N2        12.7000    42.3760     9.6150 hn         1 GDC       0.535500
     52 HC          17.7210    38.9540     9.0360 h2         1 GDC       0.054700
     53 H2A         19.5190    38.3460    11.4390 h1         1 GDC       0.072700
     54 H9          17.5550    36.5420     9.9220 h1         1 GDC       0.045700
     55 H4A         19.5090    35.3030     9.1400 h1         1 GDC       0.009700
     56 H5A         18.7310    37.2120     7.7780 h1         1 GDC       0.055700
     57 H6A1        20.6530    36.1680     6.7530 h1         1 GDC       0.027700
     58 H6A2        21.7800    37.0000     7.8430 h1         1 GDC       0.027700
     59 H10         17.3420    37.7220    12.3260 ho         1 GDC       0.485000
     60 HD          19.4680    35.6560    11.7820 ho         1 GDC       0.423000
     61 H7          21.6020    35.9100     9.7370 ho         1 GDC       0.481000
     62 H6A         20.5700    38.9770     6.9350 ho         1 GDC       0.548000
@<TRIPOS>BOND
     1     1     2 1   
     2     2     3 1   
     3     2     4 1   
     4     2     5 1   
     5     4    37 1   
     6     5     6 1   
     7     6     7 1   
     8     6    40 1   
     9     6    41 1   
    10     7     8 1   
    11     7     9 1   
    12     7    42 1   
    13     8    13 1   
    14     9    10 1   
    15     9    11 1   
    16     9    43 1   
    17    10    44 1   
    18    11    12 1   
    19    11    13 1   
    20    11    45 1   
    21    12    46 1   
    22    13    14 1   
    23    13    47 1   
    24    14    15 1   
    25    14    24 1   
    26    15    16 2   
    27    15    48 1   
    28    16    19 1   
    29    17    18 2   
    30    17    19 1   
    31    17    20 1   
    32    19    24 2   
    33    20    21 1   
    34    20    49 1   
    35    21    22 1   
    36    21    23 2   
    37    22    50 1   
    38    22    51 1   
    39    23    24 1   
    40    25    26 1   
    41    25    31 1   
    42    25    35 1   
    43    25    52 1   
    44    26    27 1   
    45    26    32 1   
    46    26    53 1   
    47    27    28 1   
    48    27    33 1   
    49    27    54 1   
    50    28    29 1   
    51    28    34 1   
    52    28    55 1   
    53    29    30 1   
    54    29    35 1   
    55    29    56 1   
    56    30    36 1   
    57    30    57 1   
    58    30    58 1   
    59    31    37 1   
    60    32    59 1   
    61    33    60 1   
    62    34    61 1   
    63    36    62 1   
    64    37    38 1   
    65    37    39 1   
@<TRIPOS>SUBSTRUCTURE
     1 GDC         1 TEMP              0 ****  ****    0 ROOT
