@<TRIPOS>MOLECULE
GDC
   62    65     1     0     0
SMALL
abcg2


@<TRIPOS>ATOM
      1 O3P         13.4940    41.1390     8.7300 o          1 GDC      -0.869500
      2 P           14.7440    41.2160     7.9080 p5         1 GDC       1.539800
      3 O1P         14.8980    40.3450     6.7070 o          1 GDC      -0.869500
      4 O2P         15.9590    40.9380     8.9580 os         1 GDC      -0.725800
      5 O5          14.9700    42.7670     7.5190 os         1 GDC      -0.635400
      6 C5          15.5330    43.1770     6.2720 c3         1 GDC       0.226600
      7 C4          15.7870    44.6660     6.3050 c5         1 GDC       0.166300
      8 O4          14.5290    45.3970     6.3030 os         1 GDC      -0.464000
      9 C3          16.5710    45.1500     7.5270 c5         1 GDC       0.123300
     10 O3          17.5170    46.1350     7.1080 oh         1 GDC      -0.751000
     11 C2          15.4830    45.7950     8.3950 c5         1 GDC       0.095300
     12 O2          15.9670    46.8290     9.2350 oh         1 GDC      -0.750000
     13 C1          14.5550    46.3730     7.3300 c5         1 GDC       0.320300
     14 N9          13.2160    46.6810     7.7710 na         1 GDC      -0.185500
     15 C8          12.5910    47.9020     7.5860 cc         1 GDC       0.392400
     16 N7          11.3870    47.9430     8.0870 nd         1 GDC      -0.631000
     17 C6          10.0620    46.1300     9.3060 c          1 GDC       0.522500
     18 O6           8.9830    46.6580     9.5740 o          1 GDC      -0.594000
     19 C7          11.1900    46.6840     8.6330 cd         1 GDC       0.034500
     20 N1          10.3000    44.7920     9.6750 ns         1 GDC      -0.474400
     21 C11         11.4510    44.0810     9.4350 cd         1 GDC       0.730800
     22 N2          11.5100    42.8090     9.8640 nv         1 GDC      -1.032200
     23 N3          12.4940    44.6130     8.8270 nc         1 GDC      -0.653100
     24 C9          12.3150    45.8860     8.4460 cc         1 GDC       0.199400
     25 C12         18.4510    39.0710     9.4720 c6         1 GDC       0.471300
     26 C2A         18.1570    38.0110    10.5300 c6         1 GDC       0.137300
     27 C10         18.6680    36.6560    10.0530 c6         1 GDC       0.123300
     28 C4A         20.1510    36.7210     9.6880 c6         1 GDC       0.121300
     29 C5A         20.3180    37.8400     8.6530 c6         1 GDC       0.113300
     30 C6A         21.7530    38.0870     8.2350 c3         1 GDC       0.175600
     31 O1          18.1310    40.3350     9.9730 os         1 GDC      -0.553400
     32 O10         16.7540    37.9690    10.7490 oh         1 GDC      -0.672000
     33 O9          18.3740    35.7160    11.0830 oh         1 GDC      -0.660000
     34 O8          20.9110    36.9570    10.8710 oh         1 GDC      -0.692000
     35 O7          19.8370    39.0800     9.1810 os         1 GDC      -0.473000
     36 O6A         21.8390    39.0840     7.2200 oh         1 GDC      -0.738000
     37 P1          17.4890    41.4940     9.0090 p5         1 GDC       1.489800
     38 O1X         18.0900    41.4360     7.6450 o          1 GDC      -0.857000
     39 O2X         17.5340    42.7420     9.8210 o          1 GDC      -0.857000
     40 H5'1        14.8480    42.9350     5.4570 h1         1 GDC       0.053200
     41 H5'2        16.4840    42.6680     6.1040 h1         1 GDC       0.053200
     42 H4          16.3370    44.9320     5.3990 h1         1 GDC       0.051700
     43 H3          17.0690    44.3330     8.0470 h1         1 GDC       0.138700
     44 HA          17.6770    46.7050     7.8750 ho         1 GDC       0.506000
     45 H2          14.9580    45.0280     8.9600 h1         1 GDC       0.130700
     46 HB          16.1730    46.4530    10.1000 ho         1 GDC       0.524000
     47 H1          14.9710    47.3170     6.9630 h2         1 GDC       0.049700
     48 H8          13.0960    48.7080     7.0760 h5         1 GDC       0.042100
     49 H11          9.5330    44.3330    10.1490 hn         1 GDC       0.303500
     50 H2N1        10.6660    42.3500    10.1660 hn         1 GDC       0.535500
     51 H2N2        12.2670    42.2240     9.4890 hn         1 GDC       0.535500
     52 HC          17.8830    38.8560     8.5580 h2         1 GDC       0.054700
     53 H2A         18.6810    38.2970    11.4490 h1         1 GDC       0.072700
     54 H9          18.1180    36.3900     9.1440 h1         1 GDC       0.045700
     55 H4A         20.4460    35.7700     9.2310 h1         1 GDC       0.009700
     56 H5A         19.7320    37.5750     7.7630 h1         1 GDC       0.055700
     57 H6A1        22.1720    37.1710     7.8170 h1         1 GDC       0.027700
     58 H6A2        22.3450    38.3760     9.1090 h1         1 GDC       0.027700
     59 H10         16.5730    37.1590    11.2450 ho         1 GDC       0.485000
     60 HD          18.3520    34.8310    10.6990 ho         1 GDC       0.423000
     61 H7          21.8020    36.6130    10.7420 ho         1 GDC       0.481000
     62 H6A         21.3690    39.8640     7.5480 ho         1 GDC       0.548000
@<TRIPOS>BOND
     1     1     2 1   
     2     2     3 1   
     3     2     4 1   
     4     2     5 1   
     5     4    37 1   
     6     5     6 1   
     7     6     7 1   
     8     6    40 1   
     9     6    41 1   
    10     7     8 1   
    11     7     9 1   
    12     7    42 1   
    13     8    13 1   
    14     9    10 1   
    15     9    11 1   
    16     9    43 1   
    17    10    44 1   
    18    11    12 1   
    19    11    13 1   
    20    11    45 1   
    21    12    46 1   
    22    13    14 1   
    23    13    47 1   
    24    14    15 1   
    25    14    24 1   
    26    15    16 2   
    27    15    48 1   
    28    16    19 1   
    29    17    18 2   
    30    17    19 1   
    31    17    20 1   
    32    19    24 2   
    33    20    21 1   
    34    20    49 1   
    35    21    22 1   
    36    21    23 2   
    37    22    50 1   
    38    22    51 1   
    39    23    24 1   
    40    25    26 1   
    41    25    31 1   
    42    25    35 1   
    43    25    52 1   
    44    26    27 1   
    45    26    32 1   
    46    26    53 1   
    47    27    28 1   
    48    27    33 1   
    49    27    54 1   
    50    28    29 1   
    51    28    34 1   
    52    28    55 1   
    53    29    30 1   
    54    29    35 1   
    55    29    56 1   
    56    30    36 1   
    57    30    57 1   
    58    30    58 1   
    59    31    37 1   
    60    32    59 1   
    61    33    60 1   
    62    34    61 1   
    63    36    62 1   
    64    37    38 1   
    65    37    39 1   
@<TRIPOS>SUBSTRUCTURE
     1 GDC         1 TEMP              0 ****  ****    0 ROOT
