@<TRIPOS>MOLECULE
GDD
   62    65     1     0     0
SMALL
No Charge or Current Charge


@<TRIPOS>ATOM
      1 N2           7.1720    -1.9780     3.1050 nv         1 GDD      -1.068200
      2 C2           6.2350    -1.0940     3.3900 cc         1 GDD       0.703800
      3 N1           6.0540    -0.8350     4.7050 ns         1 GDD      -0.462400
      4 N3           5.5860    -0.5670     2.3730 nd         1 GDD      -0.681100
      5 C4           4.6200     0.3610     2.7780 cd         1 GDD       0.110400
      6 C5           4.3640     0.6860     4.0840 cc         1 GDD       0.106500
      7 C6           5.1340     0.0480     5.1820 c          1 GDD       0.516500
      8 O6           4.9950     0.2550     6.3800 o          1 GDD      -0.525000
      9 N7           3.3550     1.6210     4.1630 nc         1 GDD      -0.646000
     10 C8           2.9950     1.8640     2.8950 cd         1 GDD       0.478400
     11 N9           3.7570     1.1060     2.0070 na         1 GDD      -0.181500
     12 C1           3.6650     1.1020     0.5520 c5         1 GDD       0.321300
     13 C7           3.4640    -0.3110    -0.0910 c5         1 GDD       0.068300
     14 O2           4.6920    -1.0420    -0.2720 oh         1 GDD      -0.709000
     15 C3           2.7890     0.0810    -1.4340 c5         1 GDD       0.097300
     16 O3           3.7640     0.5740    -2.3620 oh         1 GDD      -0.716000
     17 C9           1.8030     1.1830    -0.9160 c5         1 GDD       0.158300
     18 O4           2.5520     1.9110     0.1000 os         1 GDD      -0.410000
     19 C10          0.4860     0.6020    -0.3070 c3         1 GDD       0.211600
     20 O5          -0.2280     1.5990     0.4450 os         1 GDD      -0.556400
     21 PA          -1.1870     2.6760    -0.2800 p5         1 GDD       1.457800
     22 O1A         -0.5430     3.2430    -1.5000 o          1 GDD      -0.852000
     23 O2A         -1.5590     3.7270     0.7140 o          1 GDD      -0.852000
     24 O3A         -2.3380     1.6580    -0.6220 os         1 GDD      -0.686800
     25 PB          -3.7620     2.3080    -0.7550 p5         1 GDD       1.466800
     26 O2B         -4.4580     2.4880     0.5530 o          1 GDD      -0.844000
     27 O3B         -3.7990     3.5320    -1.6100 o          1 GDD      -0.844000
     28 O1B         -4.4390     1.0960    -1.5660 os         1 GDD      -0.613400
     29 C11         -4.9760    -0.0120    -0.8360 c6         1 GDD       0.435300
     30 O51         -5.6670    -0.8590    -1.7830 os         1 GDD      -0.475000
     31 C51         -4.8100    -1.4590    -2.7990 c6         1 GDD       0.142300
     32 C61         -5.7080    -2.2800    -3.7840 c3         1 GDD       0.172600
     33 O6A         -6.7630    -1.5050    -4.3800 oh         1 GDD      -0.666000
     34 C21         -3.9080    -0.8670    -0.0350 c6         1 GDD       0.100300
     35 O21         -4.5060    -1.9200     0.7740 oh         1 GDD      -0.724000
     36 C31         -2.9290    -1.5170    -1.0580 c6         1 GDD       0.180300
     37 O31         -2.0080    -2.3710    -0.3510 oh         1 GDD      -0.687000
     38 C41         -3.7110    -2.3450    -2.1300 c6         1 GDD       0.146300
     39 O41         -2.7930    -2.8900    -3.0980 oh         1 GDD      -0.703000
     40 H2N1         7.4400    -1.9930     2.1290 hn         1 GDD       0.489500
     41 H2N2         7.9340    -2.0750     3.7660 hn         1 GDD       0.489500
     42 H1           6.6070    -1.3300     5.3860 hn         1 GDD       0.302500
     43 H8           2.2240     2.5490     2.5560 h5         1 GDD       0.151100
     44 H7           4.5980     1.5490     0.1860 h2         1 GDD       0.088700
     45 H2           2.7740    -0.9020     0.5280 h1         1 GDD       0.079700
     46 HA           5.1400    -1.0260     0.6210 ho         1 GDD       0.500000
     47 H3           2.2440    -0.7700    -1.8700 h1         1 GDD       0.052700
     48 HB           4.5690     0.0330    -2.1730 ho         1 GDD       0.501000
     49 H4           1.5400     1.8720    -1.7280 h1         1 GDD       0.092700
     50 H5'1        -0.1350     0.2100    -1.1230 h1         1 GDD       0.013700
     51 H5'2         0.7220    -0.2420     0.3510 h1         1 GDD       0.013700
     52 H11         -5.7180     0.3700    -0.1180 h2         1 GDD       0.059700
     53 H51         -4.3250    -0.6610    -3.3820 h1         1 GDD       0.124700
     54 H611        -5.0720    -2.6960    -4.5760 h1         1 GDD      -0.005800
     55 H612        -6.1390    -3.1270    -3.2330 h1         1 GDD      -0.005800
     56 H6A         -7.3030    -2.1260    -4.9190 ho         1 GDD       0.463000
     57 H21         -3.3370    -0.2010     0.6270 h1         1 GDD       0.049700
     58 HC          -5.1080    -1.4900     1.4260 ho         1 GDD       0.477000
     59 H31         -2.3860    -0.7140    -1.5810 h1         1 GDD       0.113700
     60 HD          -2.5440    -2.7020     0.4090 ho         1 GDD       0.479000
     61 H41         -4.2210    -3.1740    -1.6160 h1         1 GDD       0.028700
     62 HE          -2.0300    -3.2240    -2.5700 ho         1 GDD       0.471000
@<TRIPOS>BOND
     1     1     2 1   
     2     1    40 1   
     3     1    41 1   
     4     2     3 1   
     5     2     4 2   
     6     3     7 1   
     7     3    42 1   
     8     4     5 1   
     9     5     6 2   
    10     5    11 1   
    11     6     7 1   
    12     6     9 1   
    13     7     8 2   
    14     9    10 2   
    15    10    11 1   
    16    10    43 1   
    17    11    12 1   
    18    12    13 1   
    19    12    18 1   
    20    12    44 1   
    21    13    14 1   
    22    13    15 1   
    23    13    45 1   
    24    14    46 1   
    25    15    16 1   
    26    15    17 1   
    27    15    47 1   
    28    16    48 1   
    29    17    18 1   
    30    17    19 1   
    31    17    49 1   
    32    19    20 1   
    33    19    50 1   
    34    19    51 1   
    35    20    21 1   
    36    21    22 1   
    37    21    23 1   
    38    21    24 1   
    39    24    25 1   
    40    25    26 1   
    41    25    27 1   
    42    25    28 1   
    43    28    29 1   
    44    29    30 1   
    45    29    34 1   
    46    29    52 1   
    47    30    31 1   
    48    31    32 1   
    49    31    38 1   
    50    31    53 1   
    51    32    33 1   
    52    32    54 1   
    53    32    55 1   
    54    33    56 1   
    55    34    35 1   
    56    34    36 1   
    57    34    57 1   
    58    35    58 1   
    59    36    37 1   
    60    36    38 1   
    61    36    59 1   
    62    37    60 1   
    63    38    39 1   
    64    38    61 1   
    65    39    62 1   
@<TRIPOS>SUBSTRUCTURE
     1 GDD         1 TEMP              0 ****  ****    0 ROOT
