@<TRIPOS>MOLECULE
GDD
   62    65     1     0     0
SMALL
bcc


@<TRIPOS>ATOM
      1 N2           5.5780    -1.7930     3.7380 nv         1 GDD      -0.957800
      2 C2           4.4880    -1.7420     2.9620 cc         1 GDD       0.703800
      3 N1           3.7350    -2.8790     2.8760 ns         1 GDD      -0.529400
      4 N3           4.2050    -0.6450     2.3050 nd         1 GDD      -0.681100
      5 C4           3.1060    -0.7530     1.5470 cd         1 GDD       0.095800
      6 C5           2.2750    -1.8450     1.4000 cc         1 GDD       0.171800
      7 C6           2.5750    -3.0430     2.1090 c          1 GDD       0.659000
      8 O6           1.9710    -4.1010     2.1100 o          1 GDD      -0.600500
      9 N7           1.2450    -1.5470     0.5460 nc         1 GDD      -0.646000
     10 C8           1.4440    -0.3150     0.1780 cd         1 GDD       0.478400
     11 N9           2.5670     0.2190     0.7600 na         1 GDD      -0.202900
     12 C1           3.1190     1.5420     0.5780 c5         1 GDD       0.268800
     13 C7           3.9080     1.7140    -0.7190 c5         1 GDD       0.045100
     14 O2           5.2180     1.2650    -0.5480 oh         1 GDD      -0.586800
     15 C3           3.7650     3.2230    -0.9460 c5         1 GDD       0.074100
     16 O3           4.6280     3.9420    -0.1050 oh         1 GDD      -0.593800
     17 C9           2.3280     3.4460    -0.4980 c5         1 GDD       0.135100
     18 O4           2.0790     2.4690     0.5200 os         1 GDD      -0.363600
     19 C10          1.3590     3.2790    -1.6530 c3         1 GDD       0.188400
     20 O5           0.0420     3.2870    -1.1610 os         1 GDD      -0.533200
     21 PA          -1.0760     2.4480    -2.0400 p5         1 GDD       1.457800
     22 O1A         -0.6520     1.0140    -2.1340 o          1 GDD      -0.852000
     23 O2A         -1.3960     3.2180    -3.2820 o          1 GDD      -0.852000
     24 O3A         -2.2560     2.6630    -0.9200 os         1 GDD      -0.686800
     25 PB          -3.6140     1.7430    -0.8060 p5         1 GDD       1.466800
     26 O2B         -4.5160     2.4190     0.1780 o          1 GDD      -0.844000
     27 O3B         -4.0860     1.3850    -2.1770 o          1 GDD      -0.844000
     28 O1B         -2.8980     0.4500    -0.0880 os         1 GDD      -0.590200
     29 C11         -3.5860    -0.4560     0.7160 c6         1 GDD       0.388900
     30 O51         -4.6200    -1.1110     0.0510 os         1 GDD      -0.428600
     31 C51         -4.2330    -1.8900    -1.0710 c6         1 GDD       0.119100
     32 C61         -5.4800    -2.5830    -1.5760 c3         1 GDD       0.149400
     33 O6A         -6.4100    -1.6260    -2.0250 oh         1 GDD      -0.543800
     34 C21         -2.5350    -1.4500     1.2090 c6         1 GDD       0.077100
     35 O21         -3.0950    -2.3520     2.1330 oh         1 GDD      -0.601800
     36 C31         -1.9950    -2.2390     0.0170 c6         1 GDD       0.157100
     37 O31         -1.0540    -3.2010     0.4080 oh         1 GDD      -0.624800
     38 C41         -3.1430    -2.9180    -0.7170 c6         1 GDD       0.123100
     39 O41         -2.6290    -3.4940    -1.8990 oh         1 GDD      -0.580800
     40 H2N1         6.0690    -0.9340     3.9190 hn         1 GDD       0.434300
     41 H2N2         5.7280    -2.5460     4.3870 hn         1 GDD       0.434300
     42 H1           4.0240    -3.6880     3.4120 hn         1 GDD       0.302500
     43 H8           0.8050     0.2470    -0.4930 h5         1 GDD       0.151100
     44 H7           3.7760     1.7160     1.4380 h2         1 GDD       0.088700
     45 H2           3.4000     1.1770    -1.5300 h1         1 GDD       0.079700
     46 HA           5.6050     1.0990    -1.4140 ho         1 GDD       0.401000
     47 H3           3.9090     3.4920    -2.0020 h1         1 GDD       0.052700
     48 HB           5.5010     3.5340    -0.1570 ho         1 GDD       0.402000
     49 H4           2.2010     4.4380    -0.0550 h1         1 GDD       0.092700
     50 H5'1         1.5250     4.1030    -2.3580 h1         1 GDD       0.013700
     51 H5'2         1.5800     2.3490    -2.1910 h1         1 GDD       0.013700
     52 H11         -4.0670     0.0560     1.5590 h2         1 GDD       0.059700
     53 H51         -3.8400    -1.2380    -1.8590 h1         1 GDD       0.124700
     54 H611        -5.1940    -3.2650    -2.3860 h1         1 GDD      -0.005800
     55 H612        -5.8950    -3.2030    -0.7680 h1         1 GDD      -0.005800
     56 H6A         -7.1630    -2.0990    -2.3900 ho         1 GDD       0.364000
     57 H21         -1.7080    -0.8830     1.6610 h1         1 GDD       0.049700
     58 HC          -3.3240    -1.8650     2.9300 ho         1 GDD       0.378000
     59 H31         -1.5430    -1.5090    -0.6710 h1         1 GDD       0.113700
     60 HD          -0.1990    -2.7330     0.4760 ho         1 GDD       0.440000
     61 H41         -3.5730    -3.6910    -0.0640 h1         1 GDD       0.028700
     62 HE          -3.1120    -4.3010    -2.0920 ho         1 GDD       0.372000
@<TRIPOS>BOND
     1     1     2 1   
     2     1    40 1   
     3     1    41 1   
     4     2     3 1   
     5     2     4 2   
     6     3     7 1   
     7     3    42 1   
     8     4     5 1   
     9     5     6 2   
    10     5    11 1   
    11     6     7 1   
    12     6     9 1   
    13     7     8 2   
    14     9    10 2   
    15    10    11 1   
    16    10    43 1   
    17    11    12 1   
    18    12    13 1   
    19    12    18 1   
    20    12    44 1   
    21    13    14 1   
    22    13    15 1   
    23    13    45 1   
    24    14    46 1   
    25    15    16 1   
    26    15    17 1   
    27    15    47 1   
    28    16    48 1   
    29    17    18 1   
    30    17    19 1   
    31    17    49 1   
    32    19    20 1   
    33    19    50 1   
    34    19    51 1   
    35    20    21 1   
    36    21    22 1   
    37    21    23 1   
    38    21    24 1   
    39    24    25 1   
    40    25    26 1   
    41    25    27 1   
    42    25    28 1   
    43    28    29 1   
    44    29    30 1   
    45    29    34 1   
    46    29    52 1   
    47    30    31 1   
    48    31    32 1   
    49    31    38 1   
    50    31    53 1   
    51    32    33 1   
    52    32    54 1   
    53    32    55 1   
    54    33    56 1   
    55    34    35 1   
    56    34    36 1   
    57    34    57 1   
    58    35    58 1   
    59    36    37 1   
    60    36    38 1   
    61    36    59 1   
    62    37    60 1   
    63    38    39 1   
    64    38    61 1   
    65    39    62 1   
@<TRIPOS>SUBSTRUCTURE
     1 GDD         1 TEMP              0 ****  ****    0 ROOT
