@<TRIPOS>MOLECULE
GDE
   17    17     1     0     0
SMALL
No Charge or Current Charge


@<TRIPOS>ATOM
      1 OAA          3.3260     0.9750    -0.1550 o          1 GDE      -0.712000
      2 OAB          3.2290    -1.1670    -0.0300 o          1 GDE      -0.712000
      3 OAD         -1.5420     2.5070    -0.0150 oh         1 GDE      -0.547100
      4 OAE         -3.0450     0.2320     0.1460 oh         1 GDE      -0.580100
      5 CAF          0.3900    -1.1710     0.1180 ca         1 GDE      -0.140000
      6 CAG          0.5000     1.2510    -0.0300 ca         1 GDE      -0.140000
      7 CAH          2.6920    -0.0680    -0.0650 c          1 GDE       0.710600
      8 CAI         -1.0110    -1.1070     0.1880 ca         1 GDE       0.120600
      9 CAJ         -0.9000     1.3110     0.0320 ca         1 GDE       0.120600
     10 CAK          1.1710     0.0050     0.0060 ca         1 GDE      -0.075600
     11 CAL         -1.6700     0.1390     0.1300 ca         1 GDE      -0.129900
     12 HOAC        -2.5700    -2.0320     0.7840 ho         1 GDE       0.453500
     13 HOAD        -2.4970     2.2810     0.0460 ho         1 GDE       0.453500
     14 HOAE        -3.4330    -0.5190    -0.3580 ho         1 GDE       0.431000
     15 HAF          0.8740    -2.1440     0.1630 ha         1 GDE       0.147000
     16 HAG          1.0650     2.1770    -0.1110 ha         1 GDE       0.147000
     17 OAC         -1.7240    -2.2600     0.3440 oh         1 GDE      -0.547100
@<TRIPOS>BOND
     1     1     7 1   
     2     2     7 1   
     3     3     9 1   
     4     3    13 1   
     5     4    11 1   
     6     4    14 1   
     7     5     8 ar  
     8     5    10 ar  
     9     5    15 1   
    10     6     9 ar  
    11     6    10 ar  
    12     6    16 1   
    13     7    10 1   
    14     8    11 ar  
    15     8    17 1   
    16     9    11 ar  
    17    12    17 1   
@<TRIPOS>SUBSTRUCTURE
     1 GDE         1 TEMP              0 ****  ****    0 ROOT
