@<TRIPOS>MOLECULE
GDE
   17    17     1     0     0
SMALL
bcc


@<TRIPOS>ATOM
      1 OAA          3.2420     1.0490    -0.0860 o          1 GDE      -0.817300
      2 OAB          3.1880    -1.1740    -0.0470 o          1 GDE      -0.817300
      3 OAD         -1.5380     2.4500    -0.0500 oh         1 GDE      -0.508100
      4 OAE         -3.0090     0.1290     0.2870 oh         1 GDE      -0.541100
      5 CAF          0.4160    -1.1840     0.1740 ca         1 GDE      -0.158000
      6 CAG          0.4670     1.2090    -0.0960 ca         1 GDE      -0.158000
      7 CAH          2.6570    -0.0490    -0.1180 c          1 GDE       0.921200
      8 CAI         -0.9710    -1.1450     0.2550 ca         1 GDE       0.120600
      9 CAJ         -0.9180     1.2520    -0.0070 ca         1 GDE       0.120600
     10 CAK          1.1350    -0.0080    -0.0100 ca         1 GDE      -0.075600
     11 CAL         -1.6410     0.0730     0.1650 ca         1 GDE      -0.129900
     12 HOAC        -2.5630    -2.1010     0.6890 ho         1 GDE       0.414500
     13 HOAD        -2.4830     2.3290     0.1050 ho         1 GDE       0.414500
     14 HOAE        -3.4290    -0.1190    -0.5480 ho         1 GDE       0.392000
     15 HAF          0.9280    -2.1330     0.2550 ha         1 GDE       0.165000
     16 HAG          1.0250     2.1280    -0.2210 ha         1 GDE       0.165000
     17 OAC         -1.6500    -2.2960     0.4430 oh         1 GDE      -0.508100
@<TRIPOS>BOND
     1     1     7 1   
     2     2     7 1   
     3     3     9 1   
     4     3    13 1   
     5     4    11 1   
     6     4    14 1   
     7     5     8 ar  
     8     5    10 ar  
     9     5    15 1   
    10     6     9 ar  
    11     6    10 ar  
    12     6    16 1   
    13     7    10 1   
    14     8    11 ar  
    15     8    17 1   
    16     9    11 ar  
    17    12    17 1   
@<TRIPOS>SUBSTRUCTURE
     1 GDE         1 TEMP              0 ****  ****    0 ROOT
