@<TRIPOS>MOLECULE
GDG
   62    65     1     0     0
SMALL
abcg2


@<TRIPOS>ATOM
      1 C21          4.3750    -0.5270    -0.1890 c6         1 GDG       0.428300
      2 C22          3.7900    -1.1680    -1.4580 c6         1 GDG       0.145300
      3 C24          2.6080    -2.7760     0.0240 c6         1 GDG       0.126300
      4 C01         -1.1010    -0.0550    -1.7720 cc         1 GDG       0.479400
      5 N02         -0.6760    -1.2830    -1.8090 nd         1 GDG      -0.633000
      6 C03         -1.7070    -2.0520    -1.3420 cd         1 GDG       0.134500
      7 C04         -2.7650    -1.2420    -1.0380 cc         1 GDG       0.169000
      8 N05         -2.3860     0.0300    -1.2990 na         1 GDG      -0.213500
      9 C06         -3.2100     1.2320    -1.1610 c5         1 GDG       0.323300
     10 C07         -3.7010     1.4300     0.2790 c5         1 GDG       0.060300
     11 C08         -3.6830     2.9560     0.3990 c5         1 GDG       0.106300
     12 C09         -2.4400     3.2890    -0.4100 c5         1 GDG       0.155300
     13 O10         -2.4440     2.3400    -1.4860 os         1 GDG      -0.407000
     14 C11         -1.1630     3.2140     0.4040 c3         1 GDG       0.222600
     15 O12         -0.0870     3.5800    -0.4300 os         1 GDG      -0.579400
     16 P13          1.3980     3.8640     0.2120 p5         1 GDG       1.449800
     17 O14          2.1010     4.7810    -0.7330 o          1 GDG      -0.831500
     18 O15          1.2630     4.1630     1.6700 o          1 GDG      -0.831500
     19 O16          2.0160     2.3380     0.0350 os         1 GDG      -0.706800
     20 O18          4.4090     2.8650     0.8190 o          1 GDG      -0.832000
     21 O19          3.9850     2.0870    -1.6160 o          1 GDG      -0.832000
     22 O20          3.5390     0.4910     0.3240 os         1 GDG      -0.629400
     23 C23          2.4300    -1.7590    -1.1030 c6         1 GDG       0.117300
     24 C25          3.3290    -2.1440     1.2160 c6         1 GDG       0.185300
     25 O26          4.5220    -1.4910     0.8000 os         1 GDG      -0.467000
     26 C27          3.7310    -3.1850     2.2390 c3         1 GDG       0.164600
     27 O28          4.2950    -2.5420     3.3580 oh         1 GDG      -0.695000
     28 O29          1.3770    -3.2730     0.4870 oh         1 GDG      -0.755000
     29 O30          1.8450    -2.3790    -2.2190 oh         1 GDG      -0.686000
     30 O31          3.7410    -0.3220    -2.5690 oh         1 GDG      -0.788000
     31 O32         -4.7900     3.5290    -0.2410 oh         1 GDG      -0.707000
     32 O33         -4.9650     0.8400     0.4340 oh         1 GDG      -0.741000
     33 N34         -3.9440    -1.7200    -0.5670 na         1 GDG      -0.921200
     34 C35         -4.0230    -3.0760    -0.4130 cc         1 GDG       0.904100
     35 N36         -3.0350    -3.8990    -0.6650 nd         1 GDG      -0.808100
     36 C37         -1.8130    -3.4720    -1.1050 c          1 GDG       0.667000
     37 O38         -0.8810    -4.2600    -1.2690 o          1 GDG      -0.558100
     38 N39         -5.1930    -3.5570     0.0120 nv         1 GDG      -1.078200
     39 H1           5.3820    -0.1430    -0.3880 h2         1 GDG       0.059700
     40 H2           4.4680    -1.9990    -1.7040 h1         1 GDG       0.023700
     41 H3           3.2380    -3.5950    -0.3660 h1         1 GDG       0.017700
     42 H5          -4.0550     1.1310    -1.8520 h2         1 GDG       0.075700
     43 H6          -2.9740     1.0040     0.9810 h1         1 GDG       0.087700
     44 H7          -3.5960     3.2780     1.4440 h1         1 GDG       0.063700
     45 H8          -2.5170     4.2860    -0.8530 h1         1 GDG       0.108700
     46 H9          -1.2600     3.9000     1.2500 h1         1 GDG       0.027700
     47 H10         -1.0220     2.2080     0.8180 h1         1 GDG       0.027700
     48 H13          1.7780    -0.9520    -0.7400 h1         1 GDG       0.073700
     49 H14          2.6470    -1.4260     1.6920 h1         1 GDG       0.087700
     50 H15          2.8390    -3.7590     2.5110 h1         1 GDG       0.012700
     51 H16          4.4370    -3.8880     1.7740 h1         1 GDG       0.012700
     52 H17          4.4940    -3.2140     4.0160 ho         1 GDG       0.468000
     53 H18          0.8520    -3.5730    -0.2700 ho         1 GDG       0.531000
     54 H19          0.9240    -2.0530    -2.2500 ho         1 GDG       0.472000
     55 H20          3.7800     0.6230    -2.2810 ho         1 GDG       0.588000
     56 H21         -5.5880     3.0970     0.0840 ho         1 GDG       0.497000
     57 H22         -5.1530     0.7430     1.3740 ho         1 GDG       0.511000
     58 H23         -4.6820    -1.0930    -0.2610 hn         1 GDG       0.514000
     59 H24         -5.2690    -4.5400     0.2080 hn         1 GDG       0.498000
     60 H25         -5.9610    -2.9640     0.2750 hn         1 GDG       0.498000
     61 P17          3.6120     2.0610    -0.1530 p5         1 GDG       1.487800
     62 H4          -0.5390     0.8180    -2.0590 h5         1 GDG       0.120100
@<TRIPOS>BOND
     1     1     2 1   
     2     1    22 1   
     3     1    25 1   
     4     1    39 1   
     5     2    23 1   
     6     2    30 1   
     7     2    40 1   
     8     3    23 1   
     9     3    24 1   
    10     3    28 1   
    11     3    41 1   
    12     4     5 2   
    13     4     8 1   
    14     4    62 1   
    15     5     6 1   
    16     6     7 2   
    17     6    36 1   
    18     7     8 1   
    19     7    33 1   
    20     8     9 1   
    21     9    10 1   
    22     9    13 1   
    23     9    42 1   
    24    10    11 1   
    25    10    32 1   
    26    10    43 1   
    27    11    12 1   
    28    11    31 1   
    29    11    44 1   
    30    12    13 1   
    31    12    14 1   
    32    12    45 1   
    33    14    15 1   
    34    14    46 1   
    35    14    47 1   
    36    15    16 1   
    37    16    17 1   
    38    16    18 1   
    39    16    19 1   
    40    19    61 1   
    41    20    61 1   
    42    21    61 1   
    43    22    61 1   
    44    23    29 1   
    45    23    48 1   
    46    24    25 1   
    47    24    26 1   
    48    24    49 1   
    49    26    27 1   
    50    26    50 1   
    51    26    51 1   
    52    27    52 1   
    53    28    53 1   
    54    29    54 1   
    55    30    55 1   
    56    31    56 1   
    57    32    57 1   
    58    33    34 1   
    59    33    58 1   
    60    34    35 2   
    61    34    38 1   
    62    35    36 1   
    63    36    37 2   
    64    38    59 1   
    65    38    60 1   
@<TRIPOS>SUBSTRUCTURE
     1 GDG         1 TEMP              0 ****  ****    0 ROOT
