@<TRIPOS>MOLECULE
GDG
   62    65     1     0     0
SMALL
No Charge or Current Charge


@<TRIPOS>ATOM
      1 C21          4.4040    -0.4120     0.1480 c6         1 GDG       0.428300
      2 C22          3.7520    -0.8300    -1.2460 c6         1 GDG       0.145300
      3 C24          2.5040    -2.6750     0.0250 c6         1 GDG       0.126300
      4 C01         -1.4340     0.2410    -2.3710 cc         1 GDG       0.479400
      5 N02         -0.8310    -0.9600    -2.4160 nd         1 GDG      -0.633000
      6 C03         -1.6640    -1.8170    -1.6920 cd         1 GDG       0.134500
      7 C04         -2.7060    -1.0960    -1.2380 cc         1 GDG       0.169000
      8 N05         -2.5870     0.2090    -1.5960 na         1 GDG      -0.213500
      9 C06         -3.4730     1.3270    -1.2710 c5         1 GDG       0.323300
     10 C07         -3.9230     1.4100     0.2470 c5         1 GDG       0.060300
     11 C08         -3.5800     2.8820     0.6440 c5         1 GDG       0.106300
     12 C09         -2.3520     3.1430    -0.2790 c5         1 GDG       0.155300
     13 O10         -2.8000     2.5800    -1.5380 os         1 GDG      -0.407000
     14 C11         -1.0160     2.4860     0.1930 c3         1 GDG       0.222600
     15 O12         -0.0740     2.5530    -0.8880 os         1 GDG      -0.579400
     16 P13          1.3870     3.1890    -0.6720 p5         1 GDG       1.449800
     17 O14          1.9680     3.5100    -2.0060 o          1 GDG      -0.831500
     18 O15          1.3010     4.3790     0.2220 o          1 GDG      -0.831500
     19 O16          2.0080     1.9060    -0.0020 os         1 GDG      -0.706800
     20 O18          3.8160     3.0900     1.3940 o          1 GDG      -0.832000
     21 O19          4.3890     2.2340    -0.8810 o          1 GDG      -0.832000
     22 O20          3.7460     0.6120     0.9150 os         1 GDG      -0.629400
     23 C23          2.3560    -1.5040    -1.0000 c6         1 GDG       0.117300
     24 C25          3.2160    -2.1810     1.3250 c6         1 GDG       0.185300
     25 O26          4.4950    -1.5720     0.9960 os         1 GDG      -0.467000
     26 C27          3.4750    -3.3490     2.3380 c3         1 GDG       0.164600
     27 O28          4.1910    -2.9440     3.5210 oh         1 GDG      -0.695000
     28 O29          1.2180    -3.2570     0.3150 oh         1 GDG      -0.755000
     29 O30          1.7940    -2.0200    -2.2290 oh         1 GDG      -0.686000
     30 O31          3.6790     0.2300    -2.2430 oh         1 GDG      -0.788000
     31 O32         -4.6890     3.7380     0.3430 oh         1 GDG      -0.707000
     32 O33         -5.3200     1.1090     0.4660 oh         1 GDG      -0.741000
     33 N34         -3.7580    -1.6430    -0.5120 na         1 GDG      -0.921200
     34 C35         -3.6890    -2.9660    -0.2560 cc         1 GDG       0.904100
     35 N36         -2.7100    -3.7270    -0.6150 nd         1 GDG      -0.808100
     36 C37         -1.6170    -3.2570    -1.3500 c          1 GDG       0.667000
     37 O38         -0.7060    -4.0180    -1.6470 o          1 GDG      -0.558100
     38 N39         -4.6590    -3.4520     0.4420 nv         1 GDG      -1.078200
     39 H1           5.4300    -0.0720    -0.0620 h2         1 GDG       0.059700
     40 H2           4.4070    -1.6160    -1.6500 h1         1 GDG       0.023700
     41 H3           3.1470    -3.4420    -0.4300 h1         1 GDG       0.017700
     42 H5          -4.3410     1.2300    -1.9330 h2         1 GDG       0.075700
     43 H6          -3.2990     0.7270     0.8430 h1         1 GDG       0.087700
     44 H7          -3.3090     2.9630     1.7070 h1         1 GDG       0.063700
     45 H8          -2.1720     4.2180    -0.4100 h1         1 GDG       0.108700
     46 H9          -0.6590     3.0120     1.0880 h1         1 GDG       0.027700
     47 H10         -1.1810     1.4400     0.4770 h1         1 GDG       0.027700
     48 H13          1.6860    -0.7470    -0.5640 h1         1 GDG       0.073700
     49 H14          2.5800    -1.4370     1.8270 h1         1 GDG       0.087700
     50 H15          2.5070    -3.7790     2.6260 h1         1 GDG       0.012700
     51 H16          4.0360    -4.1360     1.8160 h1         1 GDG       0.012700
     52 H17          4.3540    -3.7590     4.0480 ho         1 GDG       0.468000
     53 H18          0.8210    -3.5060    -0.5610 ho         1 GDG       0.531000
     54 H19          0.9200    -1.5650    -2.3550 ho         1 GDG       0.472000
     55 H20          3.9970     1.0830    -1.7930 ho         1 GDG       0.588000
     56 H21         -5.4320     3.1060     0.1780 ho         1 GDG       0.497000
     57 H22         -5.4620     1.0200     1.4420 ho         1 GDG       0.511000
     58 H23         -4.5680    -1.1120    -0.2230 hn         1 GDG       0.514000
     59 H24         -4.4410    -4.3850     0.7600 hn         1 GDG       0.498000
     60 H25         -5.0060    -2.8380     1.1610 hn         1 GDG       0.498000
     61 P17          3.5310     2.0870     0.3290 p5         1 GDG       1.487800
     62 H4          -1.0770     1.1520    -2.8380 h5         1 GDG       0.120100
@<TRIPOS>BOND
     1     1     2 1   
     2     1    22 1   
     3     1    25 1   
     4     1    39 1   
     5     2    23 1   
     6     2    30 1   
     7     2    40 1   
     8     3    23 1   
     9     3    24 1   
    10     3    28 1   
    11     3    41 1   
    12     4     5 2   
    13     4     8 1   
    14     4    62 1   
    15     5     6 1   
    16     6     7 2   
    17     6    36 1   
    18     7     8 1   
    19     7    33 1   
    20     8     9 1   
    21     9    10 1   
    22     9    13 1   
    23     9    42 1   
    24    10    11 1   
    25    10    32 1   
    26    10    43 1   
    27    11    12 1   
    28    11    31 1   
    29    11    44 1   
    30    12    13 1   
    31    12    14 1   
    32    12    45 1   
    33    14    15 1   
    34    14    46 1   
    35    14    47 1   
    36    15    16 1   
    37    16    17 1   
    38    16    18 1   
    39    16    19 1   
    40    19    61 1   
    41    20    61 1   
    42    21    61 1   
    43    22    61 1   
    44    23    29 1   
    45    23    48 1   
    46    24    25 1   
    47    24    26 1   
    48    24    49 1   
    49    26    27 1   
    50    26    50 1   
    51    26    51 1   
    52    27    52 1   
    53    28    53 1   
    54    29    54 1   
    55    30    55 1   
    56    31    56 1   
    57    32    57 1   
    58    33    34 1   
    59    33    58 1   
    60    34    35 2   
    61    34    38 1   
    62    35    36 1   
    63    36    37 2   
    64    38    59 1   
    65    38    60 1   
@<TRIPOS>SUBSTRUCTURE
     1 GDG         1 TEMP              0 ****  ****    0 ROOT
