@<TRIPOS>MOLECULE
GDH
   54    57     1     0     0
SMALL
No Charge or Current Charge


@<TRIPOS>ATOM
      1 C4          -1.8250     4.3330     0.1920 ca         1 GDH      -0.238000
      2 C5          -0.5120     4.7880     0.3780 ca         1 GDH      -0.031000
      3 C6           0.5540     3.8780     0.3580 ca         1 GDH      -0.236000
      4 C7           0.3060     2.5050     0.1500 ca         1 GDH       0.195100
      5 C10          3.5730     0.6560     0.1730 ca         1 GDH       0.340300
      6 C15          5.4050    -0.5130     0.9960 ca         1 GDH       0.340900
      7 C17         -1.0130     2.0210    -0.0470 cp         1 GDH      -0.121000
      8 C20         -0.8810    -1.4810    -1.5730 ca         1 GDH      -0.117000
      9 C21         -1.7100    -2.2160    -0.7040 ca         1 GDH      -0.074300
     10 C22         -1.9220    -3.7070    -0.9640 c3         1 GDH      -0.068100
     11 C26         -3.2450    -2.3070     1.3540 c3         1 GDH      -0.067100
     12 C28         -2.1030    -0.1810     0.5820 ca         1 GDH      -0.083000
     13 C3          -2.0780     2.9610    -0.0190 ca         1 GDH       0.188100
     14 O8           1.3200     1.5680     0.1500 os         1 GDH      -0.344100
     15 C9           2.7160     1.9240     0.2210 c3         1 GDH       0.114300
     16 C11          3.2620    -0.3920    -0.7170 ca         1 GDH      -0.134000
     17 C12          4.0590    -1.5490    -0.7340 ca         1 GDH      -0.038300
     18 C14          5.1540    -1.6010     0.1440 ca         1 GDH      -0.166000
     19 N16          4.6350     0.5990     1.0180 nb         1 GDH      -0.681000
     20 C18         -1.2660     0.5640    -0.2800 cp         1 GDH       0.000000
     21 C19         -0.6620    -0.1110    -1.3640 ca         1 GDH      -0.090000
     22 C23         -1.4220    -4.6120     0.1840 c3         1 GDH       0.164800
     23 N24         -2.3790    -4.6640     1.3110 n7         1 GDH      -0.862400
     24 C25         -2.5320    -3.4390     2.1280 c3         1 GDH       0.162800
     25 C27         -2.3310    -1.5590     0.3840 ca         1 GDH      -0.076300
     26 H1          -2.6320     5.0600     0.2110 ha         1 GDH       0.120000
     27 H2          -0.3200     5.8470     0.5400 ha         1 GDH       0.112000
     28 H3           1.5620     4.2520     0.5110 ha         1 GDH       0.124000
     29 H4           4.1720    -2.5220    -2.6680 hc         1 GDH       0.048700
     30 H5           4.1510    -3.6480    -1.3000 hc         1 GDH       0.048700
     31 H6           2.6620    -2.8320    -1.7940 hc         1 GDH       0.048700
     32 H7           6.2490    -0.5320     1.6850 h4         1 GDH       0.018100
     33 H8          -0.3980    -1.9700    -2.4160 ha         1 GDH       0.107000
     34 H9          -2.9800    -3.9150    -1.1680 hc         1 GDH       0.046200
     35 H10         -1.3860    -4.0040    -1.8740 hc         1 GDH       0.046200
     36 H11         -4.1170    -2.7110     0.8250 hc         1 GDH       0.046700
     37 H12         -3.6510    -1.6080     2.0950 hc         1 GDH       0.046700
     38 H13         -2.5720     0.3280     1.4210 ha         1 GDH       0.113000
     39 H14         -5.4190     2.7310    -0.4060 h1         1 GDH       0.041367
     40 H15         -4.6260     3.8280     0.7430 h1         1 GDH       0.041367
     41 H16         -4.4420     4.0830    -1.0140 h1         1 GDH       0.041367
     42 H17          2.9250     2.4690     1.1500 h1         1 GDH       0.056200
     43 H18          2.9920     2.5670    -0.6240 h1         1 GDH       0.056200
     44 H19          2.4070    -0.3050    -1.3800 ha         1 GDH       0.147000
     45 H20          5.8070    -2.4690     0.1720 ha         1 GDH       0.122000
     46 H21         -0.0190     0.4390    -2.0470 ha         1 GDH       0.116000
     47 H22         -1.2930    -5.6250    -0.2210 h1         1 GDH       0.049700
     48 H23         -0.4320    -4.2700     0.5170 h1         1 GDH       0.049700
     49 H24         -3.3010    -4.9310     0.9460 hn         1 GDH       0.405000
     50 H26         -1.5590    -3.0780     2.4920 h1         1 GDH       0.052700
     51 H27         -3.1390    -3.6730     3.0130 h1         1 GDH       0.052700
     52 O2          -3.3550     2.4730    -0.2280 os         1 GDH      -0.331100
     53 C13          3.7440    -2.7010    -1.6750 c3         1 GDH      -0.053800
     54 C1          -4.5140     3.3230    -0.2250 c3         1 GDH       0.147900
@<TRIPOS>BOND
     1     1     2 ar  
     2     1    13 ar  
     3     1    26 1   
     4     2     3 ar  
     5     2    27 1   
     6     3     4 ar  
     7     3    28 1   
     8     4     7 ar  
     9     4    14 1   
    10     5    15 1   
    11     5    16 ar  
    12     5    19 ar  
    13     6    18 ar  
    14     6    19 ar  
    15     6    32 1   
    16     7    13 ar  
    17     7    20 1   
    18     8     9 ar  
    19     8    21 ar  
    20     8    33 1   
    21     9    10 1   
    22     9    25 ar  
    23    10    22 1   
    24    10    34 1   
    25    10    35 1   
    26    11    24 1   
    27    11    25 1   
    28    11    36 1   
    29    11    37 1   
    30    12    20 ar  
    31    12    25 ar  
    32    12    38 1   
    33    13    52 1   
    34    14    15 1   
    35    15    42 1   
    36    15    43 1   
    37    16    17 ar  
    38    16    44 1   
    39    17    18 ar  
    40    17    53 1   
    41    18    45 1   
    42    20    21 ar  
    43    21    46 1   
    44    22    23 1   
    45    22    47 1   
    46    22    48 1   
    47    23    24 1   
    48    23    49 1   
    49    24    50 1   
    50    24    51 1   
    51    29    53 1   
    52    30    53 1   
    53    31    53 1   
    54    39    54 1   
    55    40    54 1   
    56    41    54 1   
    57    52    54 1   
@<TRIPOS>SUBSTRUCTURE
     1 GDH         1 TEMP              0 ****  ****    0 ROOT
