@<TRIPOS>MOLECULE
GDH
   54    57     1     0     0
SMALL
bcc


@<TRIPOS>ATOM
      1 C4          -1.8160     4.3660     0.1780 ca         1 GDH      -0.256000
      2 C5          -0.5200     4.7550     0.4770 ca         1 GDH      -0.049000
      3 C6           0.5260     3.8470     0.5070 ca         1 GDH      -0.254000
      4 C7           0.2550     2.5100     0.2250 ca         1 GDH       0.195100
      5 C10          3.3430     0.5890     0.2570 ca         1 GDH       0.405600
      6 C15          5.4190    -0.3370     0.3450 ca         1 GDH       0.406200
      7 C17         -1.0400     2.0840    -0.0840 cp         1 GDH      -0.121000
      8 C20         -1.0250    -1.2680    -1.8090 ca         1 GDH      -0.135000
      9 C21         -1.6660    -2.0900    -0.8880 ca         1 GDH      -0.074300
     10 C22         -1.8330    -3.5560    -1.1750 c3         1 GDH      -0.068100
     11 C26         -2.8170    -2.3650     1.3480 c3         1 GDH      -0.067100
     12 C28         -1.9360    -0.1670     0.5360 ca         1 GDH      -0.101000
     13 C3          -2.0740     3.0240    -0.1030 ca         1 GDH       0.188100
     14 O8           1.1830     1.5370     0.2350 os         1 GDH      -0.320900
     15 C9           2.5370     1.8470     0.4360 c3         1 GDH       0.091100
     16 C11          2.7730    -0.6180    -0.1270 ca         1 GDH      -0.217300
     17 C12          3.5850    -1.7380    -0.2780 ca         1 GDH      -0.038300
     18 C14          4.9450    -1.5830    -0.0300 ca         1 GDH      -0.249300
     19 N16          4.6440     0.7310     0.4890 nb         1 GDH      -0.681000
     20 C18         -1.2870     0.6530    -0.3830 cp         1 GDH       0.000000
     21 C19         -0.8340     0.0850    -1.5670 ca         1 GDH      -0.108000
     22 C23         -1.1330    -4.4840    -0.1710 c3         1 GDH       0.164800
     23 N24         -1.7760    -4.6780     1.1100 n7         1 GDH      -0.807200
     24 C25         -1.9500    -3.4940     1.9260 c3         1 GDH       0.162800
     25 C27         -2.1310    -1.5250     0.3060 ca         1 GDH      -0.076300
     26 H1          -2.6010     5.1090     0.1650 ha         1 GDH       0.138000
     27 H2          -0.3200     5.7970     0.6940 ha         1 GDH       0.130000
     28 H3           1.5230     4.1850     0.7520 ha         1 GDH       0.142000
     29 H4           3.1240    -3.1720    -1.7960 hc         1 GDH       0.048700
     30 H5           3.5220    -3.8890    -0.2410 hc         1 GDH       0.048700
     31 H6           1.9510    -3.1190    -0.4900 hc         1 GDH       0.048700
     32 H7           6.4760    -0.1950     0.5430 h4         1 GDH       0.018100
     33 H8          -0.6600    -1.6950    -2.7360 ha         1 GDH       0.125000
     34 H9          -2.8970    -3.8180    -1.2120 hc         1 GDH       0.046200
     35 H10         -1.4340    -3.7680    -2.1700 hc         1 GDH       0.046200
     36 H11         -3.7360    -2.8040     0.9410 hc         1 GDH       0.046700
     37 H12         -3.1310    -1.7210     2.1730 hc         1 GDH       0.046700
     38 H13         -2.2890     0.2630     1.4670 ha         1 GDH       0.131000
     39 H14         -5.2520     2.8610    -0.7490 h1         1 GDH       0.041367
     40 H15         -4.5710     3.9110     0.5060 h1         1 GDH       0.041367
     41 H16         -4.2290     4.2340    -1.2080 h1         1 GDH       0.041367
     42 H17          2.7120     2.2490     1.4410 h1         1 GDH       0.056200
     43 H18          2.8840     2.6030    -0.2800 h1         1 GDH       0.056200
     44 H19          1.7090    -0.6960    -0.3080 ha         1 GDH       0.165000
     45 H20          5.6300    -2.4150    -0.1240 ha         1 GDH       0.140000
     46 H21         -0.3230     0.6950    -2.3020 ha         1 GDH       0.134000
     47 H22         -1.0300    -5.4680    -0.6360 h1         1 GDH       0.049700
     48 H23         -0.1150    -4.1200     0.0030 h1         1 GDH       0.049700
     49 H24         -2.6760    -5.1200     0.9680 hn         1 GDH       0.349800
     50 H26         -0.9620    -3.0930     2.1720 h1         1 GDH       0.052700
     51 H27         -2.3970    -3.8120     2.8710 h1         1 GDH       0.052700
     52 O2          -3.2920     2.5470    -0.4180 os         1 GDH      -0.307900
     53 C13          3.0140    -3.0510    -0.7170 c3         1 GDH      -0.053800
     54 C1          -4.3810     3.4470    -0.4650 c3         1 GDH       0.124700
@<TRIPOS>BOND
     1     1     2 ar  
     2     1    13 ar  
     3     1    26 1   
     4     2     3 ar  
     5     2    27 1   
     6     3     4 ar  
     7     3    28 1   
     8     4     7 ar  
     9     4    14 1   
    10     5    15 1   
    11     5    16 ar  
    12     5    19 ar  
    13     6    18 ar  
    14     6    19 ar  
    15     6    32 1   
    16     7    13 ar  
    17     7    20 1   
    18     8     9 ar  
    19     8    21 ar  
    20     8    33 1   
    21     9    10 1   
    22     9    25 ar  
    23    10    22 1   
    24    10    34 1   
    25    10    35 1   
    26    11    24 1   
    27    11    25 1   
    28    11    36 1   
    29    11    37 1   
    30    12    20 ar  
    31    12    25 ar  
    32    12    38 1   
    33    13    52 1   
    34    14    15 1   
    35    15    42 1   
    36    15    43 1   
    37    16    17 ar  
    38    16    44 1   
    39    17    18 ar  
    40    17    53 1   
    41    18    45 1   
    42    20    21 ar  
    43    21    46 1   
    44    22    23 1   
    45    22    47 1   
    46    22    48 1   
    47    23    24 1   
    48    23    49 1   
    49    24    50 1   
    50    24    51 1   
    51    29    53 1   
    52    30    53 1   
    53    31    53 1   
    54    39    54 1   
    55    40    54 1   
    56    41    54 1   
    57    52    54 1   
@<TRIPOS>SUBSTRUCTURE
     1 GDH         1 TEMP              0 ****  ****    0 ROOT
