@<TRIPOS>MOLECULE
GDI
   51    53     1     0     0
SMALL
abcg2


@<TRIPOS>ATOM
      1 N1          -2.6820    -2.5570     0.2650 n7         1 GDI      -0.839400
      2 C2          -4.7490    -3.9050    -0.1370 c6         1 GDI      -0.116400
      3 C3          -3.2350    -3.7860    -0.2860 c6         1 GDI       0.152800
      4 C4          -3.3340    -1.3790    -0.2720 c6         1 GDI       0.088500
      5 C5          -4.8650    -1.3990    -0.1200 c6         1 GDI      -0.114400
      6 C6          -5.4380    -2.6770    -0.7220 c6         1 GDI      -0.072400
      7 C7          -2.7950    -0.1310     0.4050 c          1 GDI       0.613100
      8 O8          -2.4150    -0.1350     1.5670 o          1 GDI      -0.600100
      9 N9          -2.8340     0.9700    -0.3650 ns         1 GDI      -0.486900
     10 C10         -2.6160     2.3060     0.1120 c3         1 GDI       0.053400
     11 C11         -3.8720     3.1330     0.0440 c2         1 GDI       0.400200
     12 C12         -1.4940     3.0100    -0.6720 c3         1 GDI      -0.039100
     13 C13         -0.1730     2.3210    -0.5020 ca         1 GDI      -0.070300
     14 C14          0.2290     1.3110    -1.3720 ca         1 GDI      -0.099000
     15 C15          1.4370     0.6570    -1.1960 ca         1 GDI      -0.090000
     16 C16          2.2870     0.9970    -0.1440 cp         1 GDI      -0.042000
     17 C17          1.8850     2.0090     0.7290 ca         1 GDI      -0.090000
     18 C18          0.6720     2.6550     0.5520 ca         1 GDI      -0.099000
     19 C19          3.5820     0.3140     0.0340 cp         1 GDI      -0.005000
     20 C20          4.7060     1.0180     0.4750 ca         1 GDI      -0.106500
     21 C21          3.7130    -1.0500    -0.2400 ca         1 GDI      -0.106500
     22 C22          5.9230     0.3860     0.6380 ca         1 GDI      -0.071500
     23 C23          4.9250    -1.6950    -0.0820 ca         1 GDI      -0.071500
     24 C24          6.0360    -0.9760     0.3580 ca         1 GDI      -0.021000
     25 C25          7.2910    -1.6340     0.5210 cg         1 GDI       0.325000
     26 N26          8.3060    -2.1640     0.6480 n1         1 GDI      -0.455000
     27 N27         -4.9450     2.6850    -0.4420 n2         1 GDI      -0.748100
     28 H11         -3.7600     4.1470     0.4400 h4         1 GDI      -0.033200
     29 H1          -2.7940    -2.5630     1.2730 hn         1 GDI       0.428000
     30 H31C        -2.9720    -3.8320    -1.3490 h1         1 GDI       0.051700
     31 H32C        -2.7340    -4.6300     0.1930 h1         1 GDI       0.051700
     32 H4          -3.1030    -1.3300    -1.3430 h1         1 GDI       0.064700
     33 H21C        -5.1030    -4.8160    -0.6270 hc         1 GDI       0.045200
     34 H22C        -5.0000    -3.9990     0.9250 hc         1 GDI       0.045200
     35 H61C        -5.2930    -2.6620    -1.8070 hc         1 GDI       0.042200
     36 H62C        -6.5160    -2.7210    -0.5530 hc         1 GDI       0.042200
     37 H51C        -5.1160    -1.3450     0.9450 hc         1 GDI       0.056700
     38 H52C        -5.3030    -0.5150    -0.5930 hc         1 GDI       0.056700
     39 H9          -3.2220     0.8810    -1.2920 hn         1 GDI       0.318500
     40 H10         -2.3120     2.2460     1.1610 h1         1 GDI       0.101700
     41 H121        -1.7690     3.0490    -1.7290 hc         1 GDI       0.052700
     42 H122        -1.4210     4.0430    -0.3240 hc         1 GDI       0.052700
     43 H27         -5.6740     3.3930    -0.4090 hn         1 GDI       0.381400
     44 H14         -0.4040     1.0400    -2.2080 ha         1 GDI       0.111000
     45 H18          0.3820     3.4340     1.2480 ha         1 GDI       0.111000
     46 H15          1.7300    -0.1070    -1.9060 ha         1 GDI       0.116000
     47 H17          2.5120     2.2890     1.5660 ha         1 GDI       0.116000
     48 H20          4.6370     2.0790     0.6730 ha         1 GDI       0.123500
     49 H21          2.8530    -1.6220    -0.5610 ha         1 GDI       0.123500
     50 H22          6.7870     0.9460     0.9700 ha         1 GDI       0.125500
     51 H23          5.0080    -2.7530    -0.2900 ha         1 GDI       0.125500
@<TRIPOS>BOND
     1     1     3 1   
     2     1     4 1   
     3     1    29 1   
     4     2     3 1   
     5     2     6 1   
     6     2    33 1   
     7     2    34 1   
     8     3    30 1   
     9     3    31 1   
    10     4     5 1   
    11     4     7 1   
    12     4    32 1   
    13     5     6 1   
    14     5    37 1   
    15     5    38 1   
    16     6    35 1   
    17     6    36 1   
    18     7     8 2   
    19     7     9 1   
    20     9    10 1   
    21     9    39 1   
    22    10    11 1   
    23    10    12 1   
    24    10    40 1   
    25    11    27 2   
    26    11    28 1   
    27    12    13 1   
    28    12    41 1   
    29    12    42 1   
    30    13    14 ar  
    31    13    18 ar  
    32    14    15 ar  
    33    14    44 1   
    34    15    16 ar  
    35    15    46 1   
    36    16    17 ar  
    37    16    19 1   
    38    17    18 ar  
    39    17    47 1   
    40    18    45 1   
    41    19    20 ar  
    42    19    21 ar  
    43    20    22 ar  
    44    20    48 1   
    45    21    23 ar  
    46    21    49 1   
    47    22    24 ar  
    48    22    50 1   
    49    23    24 ar  
    50    23    51 1   
    51    24    25 1   
    52    25    26 3   
    53    27    43 1   
@<TRIPOS>SUBSTRUCTURE
     1 GDI         1 TEMP              0 ****  ****    0 ROOT
