@<TRIPOS>MOLECULE
GDI
   51    53     1     0     0
SMALL
No Charge or Current Charge


@<TRIPOS>ATOM
      1 N1          -3.4080    -2.2990     1.3370 n7         1 GDI      -0.839400
      2 C2          -4.1430    -3.8060    -0.5100 c6         1 GDI      -0.116400
      3 C3          -3.4370    -3.7020     0.8610 c6         1 GDI       0.152800
      4 C4          -2.7110    -1.3600     0.3850 c6         1 GDI       0.088500
      5 C5          -3.4160    -1.4200    -1.0070 c6         1 GDI      -0.114400
      6 C6          -3.4770    -2.8700    -1.5460 c6         1 GDI      -0.072400
      7 C7          -2.5340     0.1000     0.9640 c          1 GDI       0.613100
      8 O8          -1.9220     0.3130     2.0050 o          1 GDI      -0.600100
      9 N9          -3.1110     1.1330     0.2460 ns         1 GDI      -0.486900
     10 C10         -2.9410     2.5730     0.5320 c3         1 GDI       0.053400
     11 C11         -4.2650     3.3260     0.4250 c2         1 GDI       0.400200
     12 C12         -1.8500     3.1920    -0.3780 c3         1 GDI      -0.039100
     13 C13         -0.5340     2.4210    -0.3480 ca         1 GDI      -0.070300
     14 C14         -0.2320     1.4870    -1.3560 ca         1 GDI      -0.099000
     15 C15          0.9670     0.7570    -1.3120 ca         1 GDI      -0.090000
     16 C16          1.9010     0.9420    -0.2620 cp         1 GDI      -0.042000
     17 C17          1.5830     1.8920     0.7420 ca         1 GDI      -0.090000
     18 C18          0.3820     2.6200     0.7010 ca         1 GDI      -0.099000
     19 C19          3.1770     0.1610    -0.2130 cp         1 GDI      -0.005000
     20 C20          4.3730     0.7400     0.2800 ca         1 GDI      -0.106500
     21 C21          3.2310    -1.1840    -0.6580 ca         1 GDI      -0.106500
     22 C22          5.5730     0.0080     0.3260 ca         1 GDI      -0.071500
     23 C23          4.4280    -1.9200    -0.6130 ca         1 GDI      -0.071500
     24 C24          5.6040    -1.3260    -0.1200 ca         1 GDI      -0.021000
     25 C25          6.8300    -2.0770    -0.0730 cg         1 GDI       0.325000
     26 N26          7.8280    -2.6820    -0.0430 n1         1 GDI      -0.455000
     27 N27         -5.1280     3.1220    -0.5110 n2         1 GDI      -0.748100
     28 H11         -4.4680     4.0700     1.1890 h4         1 GDI      -0.033200
     29 H1          -4.3770    -1.9790     1.4710 hn         1 GDI       0.428000
     30 H31C        -2.4070    -4.0820     0.7730 h1         1 GDI       0.051700
     31 H32C        -3.9600    -4.3330     1.5950 h1         1 GDI       0.051700
     32 H4          -1.6800    -1.7170     0.2430 h1         1 GDI       0.064700
     33 H21C        -4.1100    -4.8440    -0.8680 hc         1 GDI       0.045200
     34 H22C        -5.2050    -3.5460    -0.4010 hc         1 GDI       0.045200
     35 H61C        -2.4610    -3.2260    -1.7690 hc         1 GDI       0.042200
     36 H62C        -4.0340    -2.8980    -2.4930 hc         1 GDI       0.042200
     37 H51C        -4.4360    -1.0180    -0.9340 hc         1 GDI       0.056700
     38 H52C        -2.8760    -0.7930    -1.7300 hc         1 GDI       0.056700
     39 H9          -3.6450     0.8760    -0.5750 hn         1 GDI       0.318500
     40 H10         -2.6010     2.6800     1.5710 h1         1 GDI       0.101700
     41 H121        -2.2290     3.2380    -1.4070 hc         1 GDI       0.052700
     42 H122        -1.6810     4.2330    -0.0740 hc         1 GDI       0.052700
     43 H27         -5.9340     3.7480    -0.3670 hn         1 GDI       0.381400
     44 H14         -0.9310     1.3210    -2.1730 ha         1 GDI       0.111000
     45 H18          0.1590     3.3330     1.4910 ha         1 GDI       0.111000
     46 H15          1.1780     0.0480    -2.1090 ha         1 GDI       0.116000
     47 H17          2.2650     2.0530     1.5730 ha         1 GDI       0.116000
     48 H20          4.3770     1.7730     0.6180 ha         1 GDI       0.123500
     49 H21          2.3310    -1.6690    -1.0300 ha         1 GDI       0.123500
     50 H22          6.4760     0.4800     0.7070 ha         1 GDI       0.125500
     51 H23          4.4370    -2.9520    -0.9580 ha         1 GDI       0.125500
@<TRIPOS>BOND
     1     1     3 1   
     2     1     4 1   
     3     1    29 1   
     4     2     3 1   
     5     2     6 1   
     6     2    33 1   
     7     2    34 1   
     8     3    30 1   
     9     3    31 1   
    10     4     5 1   
    11     4     7 1   
    12     4    32 1   
    13     5     6 1   
    14     5    37 1   
    15     5    38 1   
    16     6    35 1   
    17     6    36 1   
    18     7     8 2   
    19     7     9 1   
    20     9    10 1   
    21     9    39 1   
    22    10    11 1   
    23    10    12 1   
    24    10    40 1   
    25    11    27 2   
    26    11    28 1   
    27    12    13 1   
    28    12    41 1   
    29    12    42 1   
    30    13    14 ar  
    31    13    18 ar  
    32    14    15 ar  
    33    14    44 1   
    34    15    16 ar  
    35    15    46 1   
    36    16    17 ar  
    37    16    19 1   
    38    17    18 ar  
    39    17    47 1   
    40    18    45 1   
    41    19    20 ar  
    42    19    21 ar  
    43    20    22 ar  
    44    20    48 1   
    45    21    23 ar  
    46    21    49 1   
    47    22    24 ar  
    48    22    50 1   
    49    23    24 ar  
    50    23    51 1   
    51    24    25 1   
    52    25    26 3   
    53    27    43 1   
@<TRIPOS>SUBSTRUCTURE
     1 GDI         1 TEMP              0 ****  ****    0 ROOT
