@<TRIPOS>MOLECULE
GDJ
   93    97     1     0     0
SMALL
abcg2


@<TRIPOS>ATOM
      1 C10         44.8160     2.7830    16.3310 ca         1 GDJ      -0.070000
      2 N12         47.5500     0.0670    13.2810 nh         1 GDJ      -0.829300
      3 C13         47.9220     5.2870    17.1000 c3         1 GDJ       0.117800
      4 C20         48.2060     0.7330    10.7030 ca         1 GDJ      -0.351500
      5 C22         47.1050     6.4330    13.9340 ca         1 GDJ      -0.365500
      6 C24         50.0950     0.4810     9.2490 ca         1 GDJ      -0.182500
      7 C26         49.2500     2.6910     9.7680 ca         1 GDJ      -0.182500
      8 C28         46.8910     5.7350    12.7410 ca         1 GDJ       0.027500
      9 C01         48.1320     3.4400    14.7320 ca         1 GDJ      -0.120000
     10 C02         48.3150     2.2510    14.0100 ca         1 GDJ      -0.100000
     11 C03         47.3610     1.2680    14.0430 ca         1 GDJ       0.284000
     12 C04         46.1840     1.4200    14.8290 ca         1 GDJ      -0.017000
     13 C05         45.9980     2.6330    15.5660 ca         1 GDJ      -0.004000
     14 C06         47.0040     3.6370    15.4880 ca         1 GDJ       0.257000
     15 C07         45.1900     0.4150    14.9010 ca         1 GDJ      -0.091000
     16 C08         44.0650     0.5910    15.6630 ca         1 GDJ      -0.087000
     17 C09         43.8760     1.7880    16.3840 ca         1 GDJ      -0.097000
     18 C16         48.0750    -1.1150    13.9560 c3         1 GDJ       0.144800
     19 C23         49.1220    -0.0880    10.0470 ca         1 GDJ       0.013500
     20 C25         50.1680     1.8730     9.0950 ca         1 GDJ       0.046000
     21 C27         48.2710     2.1180    10.5610 ca         1 GDJ       0.013500
     22 C29         47.7570     5.9120    11.6830 ca         1 GDJ      -0.199500
     23 C30         48.8530     6.7770    11.8050 ca         1 GDJ       0.199100
     24 C31         49.0610     7.4770    12.9980 ca         1 GDJ      -0.199500
     25 C32         48.1850     7.3000    14.0590 ca         1 GDJ       0.027500
     26 C34         50.8110     7.7060    10.7880 c3         1 GDJ       0.147900
     27 C36         51.4050     3.6330     7.8310 c          1 GDJ       0.598100
     28 C37         52.5740     3.7170     6.8520 c3         1 GDJ       0.082800
     29 C40         51.9340     2.1600     5.0980 c6         1 GDJ       0.168800
     30 C41         52.0350     0.6730     4.7380 c6         1 GDJ       0.165800
     31 C43         54.3810     1.1730     4.7490 c6         1 GDJ       0.165800
     32 C44         54.2450     2.3250     5.7540 c6         1 GDJ       0.168800
     33 C45         53.6490    -1.0940     4.3050 c3         1 GDJ       0.169800
     34 C46         52.7330    -2.2350     4.7300 c3         1 GDJ      -0.091100
     35 C47         49.5830    -1.1590    14.1880 c          1 GDJ       0.585100
     36 C50         47.6710     5.0110    18.5790 c          1 GDJ       0.605100
     37 N11         46.8370     4.8840    16.1930 nh         1 GDJ      -0.762300
     38 N35         51.1620     2.3640     8.2550 ns         1 GDJ      -0.145000
     39 N39         52.8520     2.4600     6.1930 n3         1 GDJ      -0.744600
     40 N42         53.3780     0.1510     5.0150 n3         1 GDJ      -0.719600
     41 N48         50.3620    -0.4790    13.3360 nt         1 GDJ      -0.601000
     42 N51         46.4080     4.7800    18.9520 nt         1 GDJ      -0.584000
     43 O17         46.0480     7.2480    16.1930 o          1 GDJ      -0.534500
     44 O18         45.8160     0.8830    11.6780 o          1 GDJ      -0.539000
     45 O19         46.8380    -1.3790    11.3830 o          1 GDJ      -0.539000
     46 O21         44.8410     5.5430    14.8320 o          1 GDJ      -0.534500
     47 O33         49.6500     6.8720    10.7220 os         1 GDJ      -0.330100
     48 O38         50.7970     4.6310     8.1910 o          1 GDJ      -0.575100
     49 O49         50.0230    -1.8350    15.1160 o          1 GDJ      -0.603100
     50 O52         48.6210     5.0460    19.3580 o          1 GDJ      -0.616100
     51 S14         46.9660     0.0150    11.7320 sy         1 GDJ       1.220600
     52 S15         46.0760     6.1010    15.3190 sy         1 GDJ       1.183600
     53 H101        44.6450     3.7080    16.8560 ha         1 GDJ       0.118000
     54 H132        48.8490     4.7840    16.8320 h1         1 GDJ       0.081700
     55 H131        48.1000     6.3580    17.0210 h1         1 GDJ       0.081700
     56 H241        50.8010    -0.1490     8.7240 ha         1 GDJ       0.141000
     57 H261        49.3030     3.7610     9.6560 ha         1 GDJ       0.141000
     58 H281        46.0550     5.0570    12.6510 ha         1 GDJ       0.139000
     59 H011        48.8890     4.2100    14.6720 ha         1 GDJ       0.124000
     60 H021        49.2050     2.1260    13.4130 ha         1 GDJ       0.124000
     61 H071        45.3200    -0.4960    14.3350 ha         1 GDJ       0.116000
     62 H081        43.3140    -0.1880    15.7070 ha         1 GDJ       0.120000
     63 H091        42.9810     1.9230    16.9770 ha         1 GDJ       0.119000
     64 H161        47.6030    -1.2060    14.9340 h1         1 GDJ       0.094700
     65 H162        47.8070    -2.0010    13.3810 h1         1 GDJ       0.094700
     66 H231        49.0650    -1.1620    10.1540 ha         1 GDJ       0.137500
     67 H271        47.5540     2.7500    11.0650 ha         1 GDJ       0.137500
     68 H291        47.6080     5.3830    10.7520 ha         1 GDJ       0.130500
     69 H311        49.8930     8.1560    13.1070 ha         1 GDJ       0.130500
     70 H321        48.3470     7.8440    14.9790 ha         1 GDJ       0.139000
     71 H342        51.3030     7.6000     9.8250 h1         1 GDJ       0.048367
     72 H343        50.5320     8.7490    10.9490 h1         1 GDJ       0.048367
     73 H341        51.4810     7.3750    11.5850 h1         1 GDJ       0.048367
     74 H372        53.4480     4.0100     7.4420 h1         1 GDJ       0.068700
     75 H371        52.3620     4.5430     6.1590 h1         1 GDJ       0.068700
     76 H401        52.1520     2.7920     4.2240 h1         1 GDJ       0.041450
     77 H411        51.7760     0.5510     3.6730 h1         1 GDJ       0.039450
     78 H431        55.3730     0.7300     4.8420 h1         1 GDJ       0.039450
     79 H441        54.8620     2.1430     6.6370 h1         1 GDJ       0.041450
     80 H452        54.6860    -1.3690     4.5130 h1         1 GDJ       0.030700
     81 H451        53.5690    -0.9470     3.2130 h1         1 GDJ       0.030700
     82 H461        53.0450    -3.1600     4.2420 hc         1 GDJ       0.040367
     83 H462        52.7800    -2.3820     5.8110 hc         1 GDJ       0.040367
     84 H463        51.6940    -2.0490     4.4540 hc         1 GDJ       0.040367
     85 H351        51.7690     1.6850     7.7990 hn         1 GDJ       0.193000
     86 H482        51.3650    -0.5330    13.4300 hn         1 GDJ       0.316000
     87 H481        49.9870     0.0110    12.5420 hn         1 GDJ       0.316000
     88 H511        46.1880     4.6370    19.9250 hn         1 GDJ       0.322000
     89 H512        45.6620     4.7960    18.2790 hn         1 GDJ       0.322000
     90 H1          51.3080     0.1020     5.3180 h1         1 GDJ       0.039450
     91 H2          50.9140     2.3900     5.4070 h1         1 GDJ       0.041450
     92 H4          54.2990     1.5560     3.7180 h1         1 GDJ       0.039450
     93 H3          54.6040     3.2510     5.2800 h1         1 GDJ       0.041450
@<TRIPOS>BOND
     1     1    13 ar  
     2     1    17 ar  
     3     1    53 1   
     4     2    11 1   
     5     2    18 1   
     6     2    51 1   
     7     3    36 1   
     8     3    37 1   
     9     3    54 1   
    10     3    55 1   
    11     4    19 ar  
    12     4    21 ar  
    13     4    51 1   
    14     5     8 ar  
    15     5    25 ar  
    16     5    52 1   
    17     6    19 ar  
    18     6    20 ar  
    19     6    56 1   
    20     7    20 ar  
    21     7    21 ar  
    22     7    57 1   
    23     8    22 ar  
    24     8    58 1   
    25     9    10 ar  
    26     9    14 ar  
    27     9    59 1   
    28    10    11 ar  
    29    10    60 1   
    30    11    12 ar  
    31    12    13 ar  
    32    12    15 ar  
    33    13    14 ar  
    34    14    37 1   
    35    15    16 ar  
    36    15    61 1   
    37    16    17 ar  
    38    16    62 1   
    39    17    63 1   
    40    18    35 1   
    41    18    64 1   
    42    18    65 1   
    43    19    66 1   
    44    20    38 1   
    45    21    67 1   
    46    22    23 ar  
    47    22    68 1   
    48    23    24 ar  
    49    23    47 1   
    50    24    25 ar  
    51    24    69 1   
    52    25    70 1   
    53    26    47 1   
    54    26    71 1   
    55    26    72 1   
    56    26    73 1   
    57    27    28 1   
    58    27    38 1   
    59    27    48 2   
    60    28    39 1   
    61    28    74 1   
    62    28    75 1   
    63    29    30 1   
    64    29    39 1   
    65    29    76 1   
    66    29    91 1   
    67    30    40 1   
    68    30    77 1   
    69    30    90 1   
    70    31    32 1   
    71    31    40 1   
    72    31    78 1   
    73    31    92 1   
    74    32    39 1   
    75    32    79 1   
    76    32    93 1   
    77    33    34 1   
    78    33    40 1   
    79    33    80 1   
    80    33    81 1   
    81    34    82 1   
    82    34    83 1   
    83    34    84 1   
    84    35    41 1   
    85    35    49 2   
    86    36    42 1   
    87    36    50 2   
    88    37    52 1   
    89    38    85 1   
    90    41    86 1   
    91    41    87 1   
    92    42    88 1   
    93    42    89 1   
    94    43    52 2   
    95    44    51 2   
    96    45    51 2   
    97    46    52 2   
@<TRIPOS>SUBSTRUCTURE
     1 GDJ         1 TEMP              0 ****  ****    0 ROOT
