@<TRIPOS>MOLECULE
GDJ
   93    97     1     0     0
SMALL
No Charge or Current Charge


@<TRIPOS>ATOM
      1 C10         44.9460     2.7970    16.7880 ca         1 GDJ      -0.070000
      2 N12         47.2630     0.2070    13.3100 nh         1 GDJ      -0.829300
      3 C13         47.9890     5.2400    17.4400 c3         1 GDJ       0.117800
      4 C20         48.1000     0.8270    10.8480 ca         1 GDJ      -0.351500
      5 C22         46.6580     6.1730    14.0860 ca         1 GDJ      -0.365500
      6 C24         50.0970     0.2780     9.5710 ca         1 GDJ      -0.182500
      7 C26         49.5730     2.5970    10.0540 ca         1 GDJ      -0.182500
      8 C28         45.9980     5.4620    13.0650 ca         1 GDJ       0.027500
      9 C01         48.0600     3.4950    14.8450 ca         1 GDJ      -0.120000
     10 C02         48.1460     2.3380    14.0610 ca         1 GDJ      -0.100000
     11 C03         47.1560     1.3460    14.1330 ca         1 GDJ       0.284000
     12 C04         46.0860     1.5020    15.0530 ca         1 GDJ      -0.017000
     13 C05         46.0020     2.6740    15.8540 ca         1 GDJ      -0.004000
     14 C06         46.9790     3.6950    15.7190 ca         1 GDJ       0.257000
     15 C07         45.0960     0.4990    15.1900 ca         1 GDJ      -0.091000
     16 C08         44.0480     0.6450    16.1110 ca         1 GDJ      -0.087000
     17 C09         43.9760     1.7910    16.9130 ca         1 GDJ      -0.097000
     18 C16         48.1020    -0.9730    13.6940 c3         1 GDJ       0.144800
     19 C23         48.9390    -0.1330    10.2510 ca         1 GDJ       0.013500
     20 C25         50.4280     1.6420     9.4650 ca         1 GDJ       0.046000
     21 C27         48.4130     2.1940    10.7350 ca         1 GDJ       0.013500
     22 C29         46.5360     5.4430    11.7690 ca         1 GDJ      -0.199500
     23 C30         47.7310     6.1190    11.4840 ca         1 GDJ       0.199100
     24 C31         48.3910     6.8310    12.5070 ca         1 GDJ      -0.199500
     25 C32         47.8550     6.8600    13.8060 ca         1 GDJ       0.027500
     26 C34         49.4470     6.6800     9.8010 c3         1 GDJ       0.147900
     27 C36         52.2000     3.1910     8.4310 c          1 GDJ       0.598100
     28 C37         53.5320     3.0340     7.6520 c3         1 GDJ       0.082800
     29 C40         52.6120     2.3220     5.4210 c6         1 GDJ       0.168800
     30 C41         52.5690     1.1930     4.3300 c6         1 GDJ       0.165800
     31 C43         54.9780     0.8760     4.7190 c6         1 GDJ       0.165800
     32 C44         54.9370     1.7750     6.0060 c6         1 GDJ       0.168800
     33 C45         53.7660    -0.7380     3.2760 c3         1 GDJ       0.169800
     34 C46         52.5150    -1.6170     3.0730 c3         1 GDJ      -0.091100
     35 C47         49.5690    -0.6910    14.1260 c          1 GDJ       0.585100
     36 C50         47.5280     5.4480    18.9110 c          1 GDJ       0.605100
     37 N11         46.9240     4.9040    16.4420 nh         1 GDJ      -0.762300
     38 N35         51.6170     1.9780     8.7640 ns         1 GDJ      -0.145000
     39 N39         53.5600     2.0270     6.5400 n3         1 GDJ      -0.744600
     40 N42         53.6830     0.1890     4.4290 n3         1 GDJ      -0.719600
     41 N48         50.3750    -0.1250    13.1960 nt         1 GDJ      -0.601000
     42 N51         46.8940     6.6100    19.1890 nt         1 GDJ      -0.584000
     43 O17         46.3920     7.4090    16.4290 o          1 GDJ      -0.534500
     44 O18         45.6510     1.4100    11.7350 o          1 GDJ      -0.539000
     45 O19         46.2570    -1.0480    11.3300 o          1 GDJ      -0.539000
     46 O21         44.6010     5.7210    15.7230 o          1 GDJ      -0.534500
     47 O33         48.2140     6.0520    10.1930 os         1 GDJ      -0.330100
     48 O38         51.7260     4.2900     8.7020 o          1 GDJ      -0.575100
     49 O49         50.0100    -0.9500    15.2360 o          1 GDJ      -0.603100
     50 O52         47.7120     4.6290    19.8000 o          1 GDJ      -0.616100
     51 S14         46.6240     0.3130    11.7360 sy         1 GDJ       1.220600
     52 S15         45.9960     6.1670    15.7560 sy         1 GDJ       1.183600
     53 H101        44.8730     3.6700    17.4300 ha         1 GDJ       0.118000
     54 H132        48.7330     4.4340    17.4670 h1         1 GDJ       0.081700
     55 H131        48.5300     6.1450    17.1330 h1         1 GDJ       0.081700
     56 H241        50.7400    -0.4740     9.1190 ha         1 GDJ       0.141000
     57 H261        49.7880     3.6580     9.9990 ha         1 GDJ       0.141000
     58 H281        45.0770     4.9160    13.2690 ha         1 GDJ       0.139000
     59 H011        48.8280     4.2580    14.7540 ha         1 GDJ       0.124000
     60 H021        48.9850     2.2210    13.3850 ha         1 GDJ       0.124000
     61 H071        45.1340    -0.4040    14.5870 ha         1 GDJ       0.116000
     62 H081        43.2960    -0.1350    16.2070 ha         1 GDJ       0.120000
     63 H091        43.1690     1.9010    17.6340 ha         1 GDJ       0.119000
     64 H161        47.6240    -1.5060    14.5260 h1         1 GDJ       0.094700
     65 H162        48.1720    -1.6900    12.8650 h1         1 GDJ       0.094700
     66 H231        48.7040    -1.1950    10.3150 ha         1 GDJ       0.137500
     67 H271        47.7680     2.9480    11.1820 ha         1 GDJ       0.137500
     68 H291        46.0280     4.8940    10.9820 ha         1 GDJ       0.130500
     69 H311        49.3180     7.3640    12.3170 ha         1 GDJ       0.130500
     70 H321        48.3770     7.4060    14.5910 ha         1 GDJ       0.139000
     71 H342        49.6490     6.4910     8.7390 h1         1 GDJ       0.048367
     72 H343        49.3970     7.7660     9.9500 h1         1 GDJ       0.048367
     73 H341        50.2890     6.2820    10.3810 h1         1 GDJ       0.048367
     74 H372        54.2830     2.7640     8.4050 h1         1 GDJ       0.068700
     75 H371        53.8020     4.0280     7.2710 h1         1 GDJ       0.068700
     76 H401        52.9060     3.2620     4.9300 h1         1 GDJ       0.041450
     77 H411        52.5750     1.6750     3.3410 h1         1 GDJ       0.039450
     78 H431        55.7870     0.1400     4.8330 h1         1 GDJ       0.039450
     79 H441        55.5440     1.2910     6.7850 h1         1 GDJ       0.041450
     80 H452        54.6220    -1.4120     3.4160 h1         1 GDJ       0.030700
     81 H451        53.9510    -0.1740     2.3520 h1         1 GDJ       0.030700
     82 H461        52.6920    -2.3420     2.2700 hc         1 GDJ       0.040367
     83 H462        52.2790    -2.1710     3.9890 hc         1 GDJ       0.040367
     84 H463        51.6450    -1.0120     2.7940 hc         1 GDJ       0.040367
     85 H351        52.1350     1.1790     8.4220 hn         1 GDJ       0.193000
     86 H482        51.3330     0.0840    13.4310 hn         1 GDJ       0.316000
     87 H481        49.9950     0.1360    12.2960 hn         1 GDJ       0.316000
     88 H511        46.5690     6.7870    20.1270 hn         1 GDJ       0.322000
     89 H512        46.7120     7.2670    18.4410 hn         1 GDJ       0.322000
     90 H1          51.6030     0.6760     4.4200 h1         1 GDJ       0.039450
     91 H2          51.5920     2.4740     5.8020 h1         1 GDJ       0.041450
     92 H4          55.2530     1.5130     3.8650 h1         1 GDJ       0.039450
     93 H3          55.4360     2.7270     5.7710 h1         1 GDJ       0.041450
@<TRIPOS>BOND
     1     1    13 ar  
     2     1    17 ar  
     3     1    53 1   
     4     2    11 1   
     5     2    18 1   
     6     2    51 1   
     7     3    36 1   
     8     3    37 1   
     9     3    54 1   
    10     3    55 1   
    11     4    19 ar  
    12     4    21 ar  
    13     4    51 1   
    14     5     8 ar  
    15     5    25 ar  
    16     5    52 1   
    17     6    19 ar  
    18     6    20 ar  
    19     6    56 1   
    20     7    20 ar  
    21     7    21 ar  
    22     7    57 1   
    23     8    22 ar  
    24     8    58 1   
    25     9    10 ar  
    26     9    14 ar  
    27     9    59 1   
    28    10    11 ar  
    29    10    60 1   
    30    11    12 ar  
    31    12    13 ar  
    32    12    15 ar  
    33    13    14 ar  
    34    14    37 1   
    35    15    16 ar  
    36    15    61 1   
    37    16    17 ar  
    38    16    62 1   
    39    17    63 1   
    40    18    35 1   
    41    18    64 1   
    42    18    65 1   
    43    19    66 1   
    44    20    38 1   
    45    21    67 1   
    46    22    23 ar  
    47    22    68 1   
    48    23    24 ar  
    49    23    47 1   
    50    24    25 ar  
    51    24    69 1   
    52    25    70 1   
    53    26    47 1   
    54    26    71 1   
    55    26    72 1   
    56    26    73 1   
    57    27    28 1   
    58    27    38 1   
    59    27    48 2   
    60    28    39 1   
    61    28    74 1   
    62    28    75 1   
    63    29    30 1   
    64    29    39 1   
    65    29    76 1   
    66    29    91 1   
    67    30    40 1   
    68    30    77 1   
    69    30    90 1   
    70    31    32 1   
    71    31    40 1   
    72    31    78 1   
    73    31    92 1   
    74    32    39 1   
    75    32    79 1   
    76    32    93 1   
    77    33    34 1   
    78    33    40 1   
    79    33    80 1   
    80    33    81 1   
    81    34    82 1   
    82    34    83 1   
    83    34    84 1   
    84    35    41 1   
    85    35    49 2   
    86    36    42 1   
    87    36    50 2   
    88    37    52 1   
    89    38    85 1   
    90    41    86 1   
    91    41    87 1   
    92    42    88 1   
    93    42    89 1   
    94    43    52 2   
    95    44    51 2   
    96    45    51 2   
    97    46    52 2   
@<TRIPOS>SUBSTRUCTURE
     1 GDJ         1 TEMP              0 ****  ****    0 ROOT
