@<TRIPOS>MOLECULE
GDK
   37    39     1     0     0
SMALL
abcg2


@<TRIPOS>ATOM
      1 N1          -2.8110    -2.0200     0.0860 nb         1 GDK      -0.643000
      2 C4          -2.9620     0.7470    -0.7210 ca         1 GDK      -0.076000
      3 C5          -1.9640     0.2130     0.0920 cp         1 GDK      -0.136500
      4 C6          -1.2570     1.0810     0.9240 ca         1 GDK      -0.076000
      5 C7          -1.5340     2.4400     0.9260 ca         1 GDK      -0.122000
      6 C8          -1.7310    -1.2490     0.0850 cp         1 GDK       0.381500
      7 C10         -1.4530    -3.9690     0.0520 ca         1 GDK      -0.124000
      8 C13          1.9070    -1.4560    -0.0570 c3         1 GDK       0.110300
      9 C15          2.4880     1.0220    -0.1470 ca         1 GDK      -0.133000
     10 C17          4.8060     1.6110    -0.1860 ca         1 GDK      -0.162000
     11 C2          -2.5160     2.9800     0.0980 ca         1 GDK      -0.067300
     12 C3          -3.2290     2.1070    -0.7210 ca         1 GDK      -0.122000
     13 C12         -0.4380    -1.8060     0.0380 ca         1 GDK       0.109100
     14 C11         -0.3070    -3.1880     0.0300 ca         1 GDK      -0.168000
     15 C9          -2.6840    -3.3410     0.0710 ca         1 GDK       0.303900
     16 O            0.5940    -0.9490    -0.0230 os         1 GDK      -0.338100
     17 C14          2.8790    -0.3100    -0.1040 ca         1 GDK       0.340300
     18 N2           4.1550    -0.6840    -0.1030 nb         1 GDK      -0.680000
     19 C18          5.0900     0.2540    -0.1440 ca         1 GDK       0.341900
     20 C16          3.4760     1.9960    -0.1880 ca         1 GDK      -0.076000
     21 H1          -3.5330     0.0900    -1.3660 ha         1 GDK       0.121000
     22 H2          -0.5010     0.7000     1.5970 ha         1 GDK       0.121000
     23 H3          -0.9780     3.0910     1.5900 ha         1 GDK       0.110000
     24 H4          -1.3830    -5.0480     0.0470 ha         1 GDK       0.124000
     25 H5           2.1140    -2.0680     0.8290 h1         1 GDK       0.057200
     26 H6           2.0580    -2.0950    -0.9360 h1         1 GDK       0.057200
     27 H8           5.6060     2.3380    -0.2170 ha         1 GDK       0.125000
     28 H12         -4.0060     2.4950    -1.3690 ha         1 GDK       0.110000
     29 H13          0.6630    -3.6650    -0.0040 ha         1 GDK       0.126000
     30 H14         -3.6020    -3.9180     0.0760 h4         1 GDK       0.023100
     31 H15          6.1190    -0.0900    -0.1420 h4         1 GDK       0.020100
     32 H16          3.2050     3.0430    -0.2210 ha         1 GDK       0.121000
     33 C1          -2.7800     4.4570     0.0730 c3         1 GDK      -0.047800
     34 H7           1.4440     1.3010    -0.1500 ha         1 GDK       0.145000
     35 H9          -2.1620     4.9480    -0.6820 hc         1 GDK       0.041700
     36 H10         -3.8200     4.6730    -0.1720 hc         1 GDK       0.041700
     37 H11         -2.5500     4.9220     1.0310 hc         1 GDK       0.041700
@<TRIPOS>BOND
     1     1     6 ar  
     2     1    15 ar  
     3     2     3 ar  
     4     2    12 ar  
     5     2    21 1   
     6     3     4 ar  
     7     3     6 1   
     8     4     5 ar  
     9     4    22 1   
    10     5    11 ar  
    11     5    23 1   
    12     6    13 ar  
    13     7    14 ar  
    14     7    15 ar  
    15     7    24 1   
    16     8    16 1   
    17     8    17 1   
    18     8    25 1   
    19     8    26 1   
    20     9    17 ar  
    21     9    20 ar  
    22     9    34 1   
    23    10    19 ar  
    24    10    20 ar  
    25    10    27 1   
    26    11    12 ar  
    27    11    33 1   
    28    12    28 1   
    29    13    14 ar  
    30    13    16 1   
    31    14    29 1   
    32    15    30 1   
    33    17    18 ar  
    34    18    19 ar  
    35    19    31 1   
    36    20    32 1   
    37    33    35 1   
    38    33    36 1   
    39    33    37 1   
@<TRIPOS>SUBSTRUCTURE
     1 GDK         1 TEMP              0 ****  ****    0 ROOT
