@<TRIPOS>MOLECULE
GDL
   28    28     1     0     0
SMALL
bcc


@<TRIPOS>ATOM
      1 C1           1.2390    -0.0590     0.1110 c          1 GDL       0.728600
      2 C2          -0.1240     0.1430     0.7580 c6         1 GDL      -0.053300
      3 C3          -1.2930    -0.3660    -0.0850 c6         1 GDL       0.147100
      4 C4          -1.1460     0.2000    -1.4850 c6         1 GDL       0.124100
      5 C5           0.1830    -0.2750    -2.0790 c6         1 GDL       0.136100
      6 C6           0.5050     0.4200    -3.3830 c3         1 GDL       0.143400
      7 C8           0.0730    -0.4740     4.4780 c3         1 GDL      -0.179100
      8 N1          -0.1520    -0.4140     2.0780 ns         1 GDL      -0.571900
      9 O1           2.2510    -0.1390     0.7530 o          1 GDL      -0.552500
     10 O3          -2.5120     0.0610     0.4490 oh         1 GDL      -0.572800
     11 O4          -2.2010    -0.2710    -2.2810 oh         1 GDL      -0.573800
     12 O5           1.3090    -0.0590    -1.2120 os         1 GDL      -0.411900
     13 O6           1.6490    -0.1740    -3.9420 oh         1 GDL      -0.575800
     14 O7           0.1470     1.5340     3.1830 o          1 GDL      -0.585100
     15 H2          -0.2380     1.2290     0.8570 h1         1 GDL       0.121700
     16 H3          -1.2460    -1.4650    -0.1440 h1         1 GDL       0.047700
     17 H4          -1.1520     1.2980    -1.4210 h1         1 GDL       0.059700
     18 H5           0.1110    -1.3550    -2.2490 h1         1 GDL       0.082700
     19 H6C1        -0.3630     0.3240    -4.0440 h1         1 GDL       0.028200
     20 H6C2         0.6480     1.4920    -3.1900 h1         1 GDL       0.028200
     21 H8C1         1.0860    -0.4430     4.8810 hc         1 GDL       0.064033
     22 H8C2        -0.5840    -0.0140     5.2150 hc         1 GDL       0.064033
     23 H8C3        -0.2140    -1.5160     4.3560 hc         1 GDL       0.064033
     24 HB          -0.1490    -1.4200     2.1570 hn         1 GDL       0.314500
     25 HC          -2.6320    -0.3580     1.3080 ho         1 GDL       0.418000
     26 HD          -2.4590     0.4160    -2.9010 ho         1 GDL       0.415000
     27 H6           1.8300     0.2580    -4.7810 ho         1 GDL       0.409000
     28 C7           0.0300     0.3200     3.1990 c          1 GDL       0.679100
@<TRIPOS>BOND
     1     1     2 1   
     2     1     9 2   
     3     1    12 1   
     4     2     3 1   
     5     2     8 1   
     6     2    15 1   
     7     3     4 1   
     8     3    10 1   
     9     3    16 1   
    10     4     5 1   
    11     4    11 1   
    12     4    17 1   
    13     5     6 1   
    14     5    12 1   
    15     5    18 1   
    16     6    13 1   
    17     6    19 1   
    18     6    20 1   
    19     7    21 1   
    20     7    22 1   
    21     7    23 1   
    22     7    28 1   
    23     8    24 1   
    24     8    28 1   
    25    10    25 1   
    26    11    26 1   
    27    13    27 1   
    28    14    28 2   
@<TRIPOS>SUBSTRUCTURE
     1 GDL         1 TEMP              0 ****  ****    0 ROOT
