@<TRIPOS>MOLECULE
GDL
   28    28     1     0     0
SMALL
No Charge or Current Charge


@<TRIPOS>ATOM
      1 C1           1.2510     0.1480     0.1610 c          1 GDL       0.653100
      2 C2          -0.1880     0.2990     0.7600 c6         1 GDL      -0.053300
      3 C3          -1.2990    -0.2300    -0.1750 c6         1 GDL       0.170300
      4 C4          -1.0740     0.2550    -1.6250 c6         1 GDL       0.147300
      5 C5           0.3000    -0.2790    -2.0960 c6         1 GDL       0.159300
      6 C6           0.6620     0.1800    -3.5460 c3         1 GDL       0.166600
      7 C8          -0.0350    -0.5700     4.5430 c3         1 GDL      -0.179100
      8 N1          -0.3180    -0.2960     2.1280 ns         1 GDL      -0.504900
      9 O1           2.2430     0.3190     0.8560 o          1 GDL      -0.477000
     10 O3          -2.5830     0.2080     0.2960 oh         1 GDL      -0.635000
     11 O4          -2.1440    -0.2100    -2.4670 oh         1 GDL      -0.636000
     12 O5           1.3670     0.1450    -1.2100 os         1 GDL      -0.435100
     13 O6           1.9590    -0.2750    -3.9750 oh         1 GDL      -0.638000
     14 O7           0.5170     1.4460     3.3400 o          1 GDL      -0.585100
     15 H2          -0.3200     1.3880     0.8420 h1         1 GDL       0.121700
     16 H3          -1.2580    -1.3310    -0.1710 h1         1 GDL       0.047700
     17 H4          -1.0460     1.3560    -1.6310 h1         1 GDL       0.059700
     18 H5           0.2660    -1.3780    -2.0900 h1         1 GDL       0.082700
     19 H6C1        -0.1070    -0.1970    -4.2330 h1         1 GDL       0.028200
     20 H6C2         0.6200     1.2770    -3.5800 h1         1 GDL       0.028200
     21 H8C1         0.5190    -1.5020     4.3830 hc         1 GDL       0.064033
     22 H8C2         0.2900    -0.0550     5.4540 hc         1 GDL       0.064033
     23 H8C3        -1.0690    -0.9230     4.6240 hc         1 GDL       0.064033
     24 HB          -0.6280    -1.2600     2.2120 hn         1 GDL       0.314500
     25 HC          -2.5780     0.0890     1.2720 ho         1 GDL       0.457000
     26 HD          -2.9580    -0.1140    -1.9190 ho         1 GDL       0.454000
     27 H6           2.1140     0.1010    -4.8700 ho         1 GDL       0.448000
     28 C7           0.0950     0.3010     3.3010 c          1 GDL       0.612100
@<TRIPOS>BOND
     1     1     2 1   
     2     1     9 2   
     3     1    12 1   
     4     2     3 1   
     5     2     8 1   
     6     2    15 1   
     7     3     4 1   
     8     3    10 1   
     9     3    16 1   
    10     4     5 1   
    11     4    11 1   
    12     4    17 1   
    13     5     6 1   
    14     5    12 1   
    15     5    18 1   
    16     6    13 1   
    17     6    19 1   
    18     6    20 1   
    19     7    21 1   
    20     7    22 1   
    21     7    23 1   
    22     7    28 1   
    23     8    24 1   
    24     8    28 1   
    25    10    25 1   
    26    11    26 1   
    27    13    27 1   
    28    14    28 2   
@<TRIPOS>SUBSTRUCTURE
     1 GDL         1 TEMP              0 ****  ****    0 ROOT
