@<TRIPOS>MOLECULE
GDM
   80    81     1     0     0
SMALL
No Charge or Current Charge


@<TRIPOS>ATOM
      1 O1           1.5680     1.0190    -1.2710 o          1 GDM      -0.574100
      2 O2           1.6730     2.0190     4.9970 os         1 GDM      -0.433000
      3 O3           0.7400    -0.6060     5.0170 os         1 GDM      -0.449100
      4 O4          -0.0980    -2.5570     4.1210 o          1 GDM      -0.547000
      5 O5          -5.0030    -0.4060     0.9210 oh         1 GDM      -0.725000
      6 O6          -1.5980     0.7120    -0.0130 os         1 GDM      -0.448000
      7 N1           2.7600    -0.4540    -2.5000 ns         1 GDM      -0.427100
      8 N2           0.4590    -2.3820     6.2950 nt         1 GDM      -0.604000
      9 C1           2.5020     0.2290    -1.3250 c          1 GDM       0.616300
     10 C2           3.3880    -0.0320    -0.1290 ce         1 GDM      -0.179400
     11 C3           3.0450     0.5450     1.0680 cf         1 GDM      -0.107000
     12 C4           3.6880     0.3910     2.3710 cf         1 GDM      -0.193000
     13 C5           3.1010     0.7220     3.5500 c2         1 GDM      -0.207200
     14 C6           1.6920     1.2750     3.7560 c3         1 GDM       0.195500
     15 C7           0.6170     0.1310     3.7800 c3         1 GDM       0.244500
     16 C8          -0.8520     0.5570     3.5900 c2         1 GDM      -0.167400
     17 C9          -1.6670    -0.1120     2.7450 c2         1 GDM      -0.152200
     18 C10         -3.1500     0.1330     2.4540 c3         1 GDM      -0.054500
     19 C11         -3.5660    -0.4000     1.0320 c3         1 GDM       0.158300
     20 C12         -2.9810     0.3540    -0.2250 c3         1 GDM       0.175300
     21 C13         -3.0210    -0.5380    -1.5020 c3         1 GDM      -0.077400
     22 C14         -2.4980     0.1280    -2.8150 c3         1 GDM      -0.058700
     23 C15         -2.0420    -0.9260    -3.8840 c3         1 GDM      -0.029200
     24 C16         -0.5870    -0.7470    -4.3250 cc         1 GDM      -0.149400
     25 C17         -0.1570    -0.4210    -5.6090 cd         1 GDM       0.033900
     26 C18          1.3120    -0.2220    -5.9440 c          1 GDM       0.550500
     27 C19          2.2540    -0.3030    -4.8180 cc         1 GDM      -0.319200
     28 C20          1.8400    -0.5760    -3.5360 cd         1 GDM       0.032400
     29 C21          0.4120    -0.9350    -3.2330 c          1 GDM       0.564500
     30 C22          4.5500    -1.0140    -0.2840 c3         1 GDM      -0.052900
     31 C24          0.3050    -1.8920     5.0580 c          1 GDM       0.642100
     32 C25         -1.2930     1.7340     4.4540 c3         1 GDM      -0.040900
     33 C26         -3.9710    -0.5160     3.6010 c3         1 GDM      -0.092100
     34 C27         -1.3540     2.0910     0.3230 c3         1 GDM       0.154900
     35 C28         -3.5080     1.1460    -3.3960 c3         1 GDM      -0.085100
     36 C29         -0.9500     0.0550    -7.9190 c3         1 GDM       0.152900
     37 HO5         -5.3430    -1.0110     1.6180 ho         1 GDM       0.506000
     38 HN1          3.6890    -0.8480    -2.5850 hn         1 GDM       0.337500
     39 HN21         0.2040    -3.3380     6.4870 hn         1 GDM       0.328000
     40 HN22         0.8210    -1.7820     7.0190 hn         1 GDM       0.328000
     41 H3           2.1620     1.1850     1.0650 ha         1 GDM       0.199000
     42 H4           4.6980    -0.0230     2.3930 ha         1 GDM       0.180000
     43 H5           3.6490     0.5580     4.4790 ha         1 GDM       0.191000
     44 H6           1.4360     1.9480     2.9280 h1         1 GDM       0.054700
     45 H7           0.8850    -0.5210     2.9370 h1         1 GDM       0.077700
     46 H9          -1.2590    -0.9550     2.1840 ha         1 GDM       0.183000
     47 H10         -3.3620     1.2080     2.4750 hc         1 GDM       0.061700
     48 H11         -3.2100    -1.4380     0.9760 h1         1 GDM       0.039700
     49 H12         -3.5870     1.2520    -0.4070 h1         1 GDM       0.050700
     50 H131        -2.4290    -1.4350    -1.2860 hc         1 GDM       0.054700
     51 H132        -4.0470    -0.8890    -1.6670 hc         1 GDM       0.054700
     52 H14         -1.6130     0.7180    -2.5470 hc         1 GDM       0.074700
     53 H151        -2.1670    -1.9410    -3.4880 hc         1 GDM       0.065200
     54 H152        -2.7260    -0.8900    -4.7390 hc         1 GDM       0.065200
     55 H19          3.2860    -0.0720    -5.0570 ha         1 GDM       0.208000
     56 H221         4.8860    -1.4210     0.6760 hc         1 GDM       0.045700
     57 H222         4.2770    -1.8840    -0.8930 hc         1 GDM       0.045700
     58 H223         5.4140    -0.5310    -0.7550 hc         1 GDM       0.045700
     59 H231         2.3010     3.7690     5.9520 h1         1 GDM       0.031033
     60 H232         3.4610     3.1040     4.7840 h1         1 GDM       0.031033
     61 H233         1.9930     3.9350     4.2100 h1         1 GDM       0.031033
     62 H251        -2.3700     1.9220     4.3990 hc         1 GDM       0.040367
     63 H252        -1.0570     1.5580     5.5100 hc         1 GDM       0.040367
     64 H253        -0.7960     2.6620     4.1470 hc         1 GDM       0.040367
     65 H261        -3.5970    -0.1910     4.5790 hc         1 GDM       0.038700
     66 H262        -5.0290    -0.2330     3.5500 hc         1 GDM       0.038700
     67 H263        -3.8980    -1.6100     3.5620 hc         1 GDM       0.038700
     68 H271        -0.2860     2.2520     0.5110 h1         1 GDM       0.025700
     69 H272        -1.6600     2.7490    -0.5000 h1         1 GDM       0.025700
     70 H273        -1.9050     2.3870     1.2240 h1         1 GDM       0.025700
     71 H281        -3.0960     1.6270    -4.2910 hc         1 GDM       0.030367
     72 H282        -4.4470     0.6510    -3.6720 hc         1 GDM       0.030367
     73 H283        -3.7350     1.9330    -2.6670 hc         1 GDM       0.030367
     74 H291        -1.9060     0.1090    -8.4550 h1         1 GDM       0.043033
     75 H292        -0.4630     1.0350    -8.0020 h1         1 GDM       0.043033
     76 H293        -0.3290    -0.7000    -8.4190 h1         1 GDM       0.043033
     77 C23          2.3930     3.2650     4.9810 c3         1 GDM       0.139900
     78 O7          -1.1760    -0.2940    -6.5400 os         1 GDM      -0.345100
     79 O8           1.7430     0.0200    -7.0630 o          1 GDM      -0.493100
     80 O9           0.0960    -1.3780    -2.1340 o          1 GDM      -0.471100
@<TRIPOS>BOND
     1     1     9 2   
     2     2    14 1   
     3     2    77 1   
     4     3    15 1   
     5     3    31 1   
     6     4    31 2   
     7     5    19 1   
     8     5    37 1   
     9     6    20 1   
    10     6    34 1   
    11     7     9 1   
    12     7    28 1   
    13     7    38 1   
    14     8    31 1   
    15     8    39 1   
    16     8    40 1   
    17     9    10 1   
    18    10    11 2   
    19    10    30 1   
    20    11    12 1   
    21    11    41 1   
    22    12    13 2   
    23    12    42 1   
    24    13    14 1   
    25    13    43 1   
    26    14    15 1   
    27    14    44 1   
    28    15    16 1   
    29    15    45 1   
    30    16    17 2   
    31    16    32 1   
    32    17    18 1   
    33    17    46 1   
    34    18    19 1   
    35    18    33 1   
    36    18    47 1   
    37    19    20 1   
    38    19    48 1   
    39    20    21 1   
    40    20    49 1   
    41    21    22 1   
    42    21    50 1   
    43    21    51 1   
    44    22    23 1   
    45    22    35 1   
    46    22    52 1   
    47    23    24 1   
    48    23    53 1   
    49    23    54 1   
    50    24    25 2   
    51    24    29 1   
    52    25    26 1   
    53    25    78 1   
    54    26    27 1   
    55    26    79 2   
    56    27    28 2   
    57    27    55 1   
    58    28    29 1   
    59    29    80 2   
    60    30    56 1   
    61    30    57 1   
    62    30    58 1   
    63    32    62 1   
    64    32    63 1   
    65    32    64 1   
    66    33    65 1   
    67    33    66 1   
    68    33    67 1   
    69    34    68 1   
    70    34    69 1   
    71    34    70 1   
    72    35    71 1   
    73    35    72 1   
    74    35    73 1   
    75    36    74 1   
    76    36    75 1   
    77    36    76 1   
    78    36    78 1   
    79    59    77 1   
    80    60    77 1   
    81    61    77 1   
@<TRIPOS>SUBSTRUCTURE
     1 GDM         1 TEMP              0 ****  ****    0 ROOT
