@<TRIPOS>MOLECULE
GDM
   80    81     1     0     0
SMALL
abcg2


@<TRIPOS>ATOM
      1 O1           1.5760     0.6530    -1.4830 o          1 GDM      -0.574100
      2 O2           1.5220     2.1520     4.2590 os         1 GDM      -0.433000
      3 O3           0.6220    -0.1050     5.3040 os         1 GDM      -0.449100
      4 O4          -0.1720    -2.2200     5.2550 o          1 GDM      -0.547000
      5 O5          -4.8330    -0.6370     0.6920 oh         1 GDM      -0.725000
      6 O6          -1.4670     0.5090     0.2020 os         1 GDM      -0.448000
      7 N1           2.8890    -0.7320    -2.6510 ns         1 GDM      -0.427100
      8 N2           0.3930    -1.2040     7.2020 nt         1 GDM      -0.604000
      9 C1           2.5420    -0.0880    -1.4910 c          1 GDM       0.616300
     10 C2           3.3680    -0.3750    -0.2870 ce         1 GDM      -0.179400
     11 C3           2.8830     0.1230     0.8650 cf         1 GDM      -0.107000
     12 C4           3.4250    -0.0390     2.1960 cf         1 GDM      -0.193000
     13 C5           2.8080     0.3710     3.3140 c2         1 GDM      -0.207200
     14 C6           1.4630     1.0400     3.4040 c3         1 GDM       0.195500
     15 C7           0.3890     0.0640     3.9040 c3         1 GDM       0.244500
     16 C8          -1.0240     0.5070     3.6220 c2         1 GDM      -0.167400
     17 C9          -1.7620    -0.2680     2.8260 c2         1 GDM      -0.152200
     18 C10         -3.1920    -0.0640     2.4160 c3         1 GDM      -0.054500
     19 C11         -3.4540    -0.6120     0.9990 c3         1 GDM       0.158300
     20 C12         -2.8030     0.2040    -0.1290 c3         1 GDM       0.175300
     21 C13         -2.8110    -0.5810    -1.4410 c3         1 GDM      -0.077400
     22 C14         -2.0980     0.1100    -2.6040 c3         1 GDM      -0.058700
     23 C15         -1.8690    -0.8830    -3.7740 c3         1 GDM      -0.029200
     24 C16         -0.4840    -0.7700    -4.3210 cc         1 GDM      -0.149400
     25 C17         -0.1510    -0.4320    -5.5760 cd         1 GDM       0.033900
     26 C18          1.2810    -0.3580    -6.0100 c          1 GDM       0.550500
     27 C19          2.3220    -0.4120    -4.9760 cc         1 GDM      -0.319200
     28 C20          2.0010    -0.6920    -3.7100 cd         1 GDM       0.032400
     29 C21          0.6070    -1.1550    -3.4000 c          1 GDM       0.564500
     30 C22          4.5940    -1.2230    -0.4200 c3         1 GDM      -0.052900
     31 C24          0.2370    -1.2580     5.8700 c          1 GDM       0.642100
     32 C25         -1.5010     1.7970     4.2240 c3         1 GDM      -0.040900
     33 C26         -4.0800    -0.7860     3.4390 c3         1 GDM      -0.092100
     34 C27         -1.2000     1.8670     0.4180 c3         1 GDM       0.154900
     35 C28         -2.8290     1.3520    -3.1030 c3         1 GDM      -0.085100
     36 C29         -1.2680     1.1420    -6.9150 c3         1 GDM       0.152900
     37 HO5         -5.2390    -1.3840     1.1390 ho         1 GDM       0.506000
     38 HN1          3.8170    -1.1040    -2.7930 hn         1 GDM       0.337500
     39 HN21         0.1130    -1.9870     7.7660 hn         1 GDM       0.328000
     40 HN22         0.6720    -0.3600     7.6730 hn         1 GDM       0.328000
     41 H3           1.9700     0.6980     0.7790 ha         1 GDM       0.199000
     42 H4           4.3840    -0.5320     2.3050 ha         1 GDM       0.180000
     43 H5           3.3040     0.1980     4.2640 ha         1 GDM       0.191000
     44 H6           1.1290     1.3540     2.4050 h1         1 GDM       0.054700
     45 H7           0.5600    -0.8840     3.3870 h1         1 GDM       0.077700
     46 H9          -1.3170    -1.1990     2.4840 ha         1 GDM       0.183000
     47 H10         -3.4510     1.0000     2.4320 hc         1 GDM       0.061700
     48 H11         -3.0420    -1.6330     0.9650 h1         1 GDM       0.039700
     49 H12         -3.3890     1.1290    -0.2370 h1         1 GDM       0.050700
     50 H131        -2.3090    -1.5360    -1.2520 hc         1 GDM       0.054700
     51 H132        -3.8410    -0.8230    -1.7200 hc         1 GDM       0.054700
     52 H14         -1.1220     0.4270    -2.2300 hc         1 GDM       0.074700
     53 H151        -2.0140    -1.9090    -3.4250 hc         1 GDM       0.065200
     54 H152        -2.6060    -0.7260    -4.5620 hc         1 GDM       0.065200
     55 H19          3.3360    -0.1770    -5.2740 ha         1 GDM       0.208000
     56 H221         5.1030    -1.3520     0.5320 hc         1 GDM       0.045700
     57 H222         4.3520    -2.2200    -0.7950 hc         1 GDM       0.045700
     58 H223         5.3160    -0.7810    -1.1110 hc         1 GDM       0.045700
     59 H231         2.1260     4.0800     4.3990 h1         1 GDM       0.031033
     60 H232         3.2010     3.0690     3.4190 h1         1 GDM       0.031033
     61 H233         1.6390     3.5930     2.7650 h1         1 GDM       0.031033
     62 H251        -2.5750     1.9230     4.1090 hc         1 GDM       0.040367
     63 H252        -1.2780     1.8450     5.2900 hc         1 GDM       0.040367
     64 H253        -1.0220     2.6630     3.7640 hc         1 GDM       0.040367
     65 H261        -3.8460    -0.4480     4.4480 hc         1 GDM       0.038700
     66 H262        -5.1420    -0.5990     3.2720 hc         1 GDM       0.038700
     67 H263        -3.9130    -1.8660     3.4110 hc         1 GDM       0.038700
     68 H271        -0.1460     1.9620     0.6760 h1         1 GDM       0.025700
     69 H272        -1.3790     2.4710    -0.4790 h1         1 GDM       0.025700
     70 H273        -1.7910     2.2920     1.2360 h1         1 GDM       0.025700
     71 H281        -2.3020     1.8020    -3.9460 hc         1 GDM       0.030367
     72 H282        -3.8400     1.1090    -3.4390 hc         1 GDM       0.030367
     73 H283        -2.9110     2.1210    -2.3330 hc         1 GDM       0.030367
     74 H291        -2.0100     1.1400    -7.7080 h1         1 GDM       0.043033
     75 H292        -1.6450     1.7310    -6.0760 h1         1 GDM       0.043033
     76 H293        -0.3520     1.6020    -7.2880 h1         1 GDM       0.043033
     77 C23          2.1550     3.2670     3.6750 c3         1 GDM       0.139900
     78 O7          -1.0730    -0.2180    -6.5300 os         1 GDM      -0.345100
     79 O8           1.5580    -0.2000    -7.1810 o          1 GDM      -0.493100
     80 O9           0.4100    -1.8750    -2.4500 o          1 GDM      -0.471100
@<TRIPOS>BOND
     1     1     9 2   
     2     2    14 1   
     3     2    77 1   
     4     3    15 1   
     5     3    31 1   
     6     4    31 2   
     7     5    19 1   
     8     5    37 1   
     9     6    20 1   
    10     6    34 1   
    11     7     9 1   
    12     7    28 1   
    13     7    38 1   
    14     8    31 1   
    15     8    39 1   
    16     8    40 1   
    17     9    10 1   
    18    10    11 2   
    19    10    30 1   
    20    11    12 1   
    21    11    41 1   
    22    12    13 2   
    23    12    42 1   
    24    13    14 1   
    25    13    43 1   
    26    14    15 1   
    27    14    44 1   
    28    15    16 1   
    29    15    45 1   
    30    16    17 2   
    31    16    32 1   
    32    17    18 1   
    33    17    46 1   
    34    18    19 1   
    35    18    33 1   
    36    18    47 1   
    37    19    20 1   
    38    19    48 1   
    39    20    21 1   
    40    20    49 1   
    41    21    22 1   
    42    21    50 1   
    43    21    51 1   
    44    22    23 1   
    45    22    35 1   
    46    22    52 1   
    47    23    24 1   
    48    23    53 1   
    49    23    54 1   
    50    24    25 2   
    51    24    29 1   
    52    25    26 1   
    53    25    78 1   
    54    26    27 1   
    55    26    79 2   
    56    27    28 2   
    57    27    55 1   
    58    28    29 1   
    59    29    80 2   
    60    30    56 1   
    61    30    57 1   
    62    30    58 1   
    63    32    62 1   
    64    32    63 1   
    65    32    64 1   
    66    33    65 1   
    67    33    66 1   
    68    33    67 1   
    69    34    68 1   
    70    34    69 1   
    71    34    70 1   
    72    35    71 1   
    73    35    72 1   
    74    35    73 1   
    75    36    74 1   
    76    36    75 1   
    77    36    76 1   
    78    36    78 1   
    79    59    77 1   
    80    60    77 1   
    81    61    77 1   
@<TRIPOS>SUBSTRUCTURE
     1 GDM         1 TEMP              0 ****  ****    0 ROOT
