@<TRIPOS>MOLECULE
GDN
   49    49     1     0     0
SMALL
abcg2


@<TRIPOS>ATOM
      1 N1           0.7170    -3.1000     3.4010 n8         1 GDN      -1.021200
      2 CA1         -0.4050    -2.1960     3.5650 c3         1 GDN       0.015500
      3 C1          -0.7660    -2.0330     5.0590 c          1 GDN       0.708000
      4 O11         -0.4130    -2.9450     5.8330 o          1 GDN      -0.728000
      5 O12         -1.4220    -1.0150     5.3570 o          1 GDN      -0.728000
      6 CB1         -1.6790    -2.5980     2.8020 c3         1 GDN      -0.084400
      7 CG1         -1.4760    -2.7880     1.2970 c3         1 GDN      -0.156400
      8 CD1         -0.9250    -1.5370     0.6510 c          1 GDN       0.607100
      9 OE1         -1.5150    -0.4660     0.7030 o          1 GDN      -0.634100
     10 N2           0.2610    -1.6770     0.0320 ns         1 GDN      -0.493900
     11 CA2          0.9750    -0.5820    -0.5590 c3         1 GDN       0.036700
     12 C2           2.0230    -1.1320    -1.5180 c          1 GDN       0.593100
     13 O2           2.4770    -2.2590    -1.3810 o          1 GDN      -0.603100
     14 CB2          1.6330     0.3290     0.4950 c3         1 GDN      -0.034400
     15 SG2          2.7780    -0.6380     1.5280 ss         1 GDN       0.112000
     16 N3           2.3910    -0.2870    -2.4860 ns         1 GDN      -0.454900
     17 CA3          3.6400    -0.4560    -3.1830 c3         1 GDN      -0.063000
     18 C3           4.8810    -0.2030    -2.2920 c          1 GDN       0.709000
     19 O31          4.6820     0.1560    -1.1210 o          1 GDN      -0.725500
     20 O32          5.9740    -0.3840    -2.8650 o          1 GDN      -0.725500
     21 C7           2.3170    -0.1940     3.1530 ca         1 GDN      -0.031000
     22 C8           2.5640    -1.0220     4.2630 ca         1 GDN      -0.162200
     23 C9           2.0420    -0.7470     5.5140 ca         1 GDN       0.052000
     24 C4           1.2940     0.3940     5.6910 ca         1 GDN      -0.189200
     25 C5           1.1260     1.3020     4.6550 ca         1 GDN       0.009000
     26 C6           1.6480     1.0120     3.4170 ca         1 GDN      -0.176000
     27 N5           3.3660    -2.2160     4.1430 no         1 GDN       0.718200
     28 O2A          3.4270    -2.9790     5.0770 o          1 GDN      -0.408500
     29 O2B          3.9820    -2.3690     3.1120 o          1 GDN      -0.408500
     30 N4           0.6730     0.6410     6.9720 no         1 GDN       0.728200
     31 O4A         -0.0130     1.6300     7.0860 o          1 GDN      -0.418500
     32 O4B          0.8690    -0.1490     7.8650 o          1 GDN      -0.418500
     33 HN1          0.7970    -3.4350     2.4510 hn         1 GDN       0.393000
     34 HN2A         0.5850    -3.9000     4.0060 hn         1 GDN       0.393000
     35 HA1         -0.1080    -1.2050     3.2020 h1         1 GDN       0.045700
     36 HB11        -2.0750    -3.5330     3.2110 hc         1 GDN       0.050700
     37 HB12        -2.4420    -1.8350     2.9650 hc         1 GDN       0.050700
     38 HG11        -0.8360    -3.6510     1.0970 hc         1 GDN       0.038200
     39 HG12        -2.4380    -3.0120     0.8300 hc         1 GDN       0.038200
     40 HN2          0.7290    -2.5700     0.0310 hn         1 GDN       0.343500
     41 HA2          0.2760     0.0520    -1.1130 h1         1 GDN       0.060700
     42 HB21         2.1740     1.1430     0.0150 h1         1 GDN       0.084200
     43 HB22         0.8330     0.7520     1.0960 h1         1 GDN       0.084200
     44 HN3          2.0130     0.6460    -2.4550 hn         1 GDN       0.285500
     45 HA31         3.6510     0.2390    -4.0240 h1         1 GDN       0.034200
     46 HA32         3.6950    -1.4580    -3.6120 h1         1 GDN       0.034200
     47 H3           2.2010    -1.4400     6.3250 ha         1 GDN       0.184000
     48 H5           0.5900     2.2290     4.7990 ha         1 GDN       0.136000
     49 H6           1.5200     1.7420     2.6340 ha         1 GDN       0.121000
@<TRIPOS>BOND
     1     1     2 1   
     2     1    33 1   
     3     1    34 1   
     4     2     3 1   
     5     2     6 1   
     6     2    35 1   
     7     3     4 1   
     8     3     5 1   
     9     6     7 1   
    10     6    36 1   
    11     6    37 1   
    12     7     8 1   
    13     7    38 1   
    14     7    39 1   
    15     8     9 2   
    16     8    10 1   
    17    10    11 1   
    18    10    40 1   
    19    11    12 1   
    20    11    14 1   
    21    11    41 1   
    22    12    13 2   
    23    12    16 1   
    24    14    15 1   
    25    14    42 1   
    26    14    43 1   
    27    15    21 1   
    28    16    17 1   
    29    16    44 1   
    30    17    18 1   
    31    17    45 1   
    32    17    46 1   
    33    18    19 1   
    34    18    20 1   
    35    21    22 ar  
    36    21    26 ar  
    37    22    23 ar  
    38    22    27 1   
    39    23    24 ar  
    40    23    47 1   
    41    24    25 ar  
    42    24    30 1   
    43    25    26 ar  
    44    25    48 1   
    45    26    49 1   
    46    27    28 1   
    47    27    29 1   
    48    30    31 1   
    49    30    32 1   
@<TRIPOS>SUBSTRUCTURE
     1 GDN         1 TEMP              0 ****  ****    0 ROOT
