@<TRIPOS>MOLECULE
GDN
   49    49     1     0     0
SMALL
No Charge or Current Charge


@<TRIPOS>ATOM
      1 N1          -0.0770    -4.5450     2.7300 n8         1 GDN      -1.021200
      2 CA1         -0.9780    -3.3790     3.0460 c3         1 GDN       0.015500
      3 C1          -1.4120    -3.2110     4.5640 c          1 GDN       0.708000
      4 O11         -1.8880    -4.1780     5.1460 o          1 GDN      -0.728000
      5 O12         -1.1990    -2.1380     5.1140 o          1 GDN      -0.728000
      6 CB1         -2.2290    -3.4090     2.1250 c3         1 GDN      -0.084400
      7 CG1         -1.9460    -3.2100     0.6100 c3         1 GDN      -0.156400
      8 CD1         -1.3120    -1.8440     0.3100 c          1 GDN       0.607100
      9 OE1         -1.9340    -0.7950     0.4030 o          1 GDN      -0.634100
     10 N2          -0.0030    -1.8850    -0.1100 ns         1 GDN      -0.493900
     11 CA2          0.8330    -0.7030    -0.4200 c3         1 GDN       0.036700
     12 C2           2.0950    -1.1200    -1.2300 c          1 GDN       0.593100
     13 O2           2.4140    -2.2900    -1.4130 o          1 GDN      -0.603100
     14 CB2          1.1990     0.0770     0.8680 c3         1 GDN      -0.034400
     15 SG2          2.2080    -0.9610     2.0180 ss         1 GDN       0.112000
     16 N3           2.8410    -0.0750    -1.7380 ns         1 GDN      -0.454900
     17 CA3          4.0740    -0.2310    -2.5430 c3         1 GDN      -0.063000
     18 C3           4.7820     1.1280    -2.7980 c          1 GDN       0.709000
     19 O31          4.1070     2.0690    -3.1920 o          1 GDN      -0.725500
     20 O32          5.9750     1.2140    -2.5450 o          1 GDN      -0.725500
     21 C7           2.3240    -0.0220     3.5580 ca         1 GDN      -0.031000
     22 C8           2.6590    -0.6690     4.7770 ca         1 GDN      -0.162200
     23 C9           2.7000     0.0690     5.9810 ca         1 GDN       0.052000
     24 C4           2.4290     1.4550     5.9860 ca         1 GDN      -0.189200
     25 C5           2.1150     2.0970     4.7700 ca         1 GDN       0.009000
     26 C6           2.0630     1.3650     3.5740 ca         1 GDN      -0.176000
     27 N5           2.9700    -2.1270     4.8350 no         1 GDN       0.718200
     28 O2A          2.5580    -2.7580     5.8180 o          1 GDN      -0.408500
     29 O2B          3.8300    -2.5640     4.0590 o          1 GDN      -0.408500
     30 N4           2.4810     2.2310     7.2630 no         1 GDN       0.728200
     31 O4A          2.2350     3.4440     7.2230 o          1 GDN      -0.418500
     32 O4B          2.7710     1.6260     8.3040 o          1 GDN      -0.418500
     33 HN1         -0.0770    -4.7140     1.7200 hn         1 GDN       0.393000
     34 HN2A        -0.5010    -5.3970     3.1190 hn         1 GDN       0.393000
     35 HA1         -0.4150    -2.4690     2.7960 h1         1 GDN       0.045700
     36 HB11        -2.7640    -4.3560     2.2710 hc         1 GDN       0.050700
     37 HB12        -2.9180    -2.6190     2.4500 hc         1 GDN       0.050700
     38 HG11        -1.2970    -4.0190     0.2530 hc         1 GDN       0.038200
     39 HG12        -2.9050    -3.2670     0.0820 hc         1 GDN       0.038200
     40 HN2          0.4190    -2.8030    -0.1990 hn         1 GDN       0.343500
     41 HA2          0.2500    -0.0370    -1.0700 h1         1 GDN       0.060700
     42 HB21         1.7690     0.9780     0.6100 h1         1 GDN       0.084200
     43 HB22         0.2830     0.3840     1.3880 h1         1 GDN       0.084200
     44 HN3          2.4980     0.8650    -1.5700 hn         1 GDN       0.285500
     45 HA31         3.8180    -0.6770    -3.5130 h1         1 GDN       0.034200
     46 HA32         4.7650    -0.9020    -2.0170 h1         1 GDN       0.034200
     47 H3           2.9530    -0.4400     6.9110 ha         1 GDN       0.184000
     48 H5           1.9070     3.1660     4.7410 ha         1 GDN       0.136000
     49 H6           1.8200     1.8990     2.6620 ha         1 GDN       0.121000
@<TRIPOS>BOND
     1     1     2 1   
     2     1    33 1   
     3     1    34 1   
     4     2     3 1   
     5     2     6 1   
     6     2    35 1   
     7     3     4 1   
     8     3     5 1   
     9     6     7 1   
    10     6    36 1   
    11     6    37 1   
    12     7     8 1   
    13     7    38 1   
    14     7    39 1   
    15     8     9 2   
    16     8    10 1   
    17    10    11 1   
    18    10    40 1   
    19    11    12 1   
    20    11    14 1   
    21    11    41 1   
    22    12    13 2   
    23    12    16 1   
    24    14    15 1   
    25    14    42 1   
    26    14    43 1   
    27    15    21 1   
    28    16    17 1   
    29    16    44 1   
    30    17    18 1   
    31    17    45 1   
    32    17    46 1   
    33    18    19 1   
    34    18    20 1   
    35    21    22 ar  
    36    21    26 ar  
    37    22    23 ar  
    38    22    27 1   
    39    23    24 ar  
    40    23    47 1   
    41    24    25 ar  
    42    24    30 1   
    43    25    26 ar  
    44    25    48 1   
    45    26    49 1   
    46    27    28 1   
    47    27    29 1   
    48    30    31 1   
    49    30    32 1   
@<TRIPOS>SUBSTRUCTURE
     1 GDN         1 TEMP              0 ****  ****    0 ROOT
