@<TRIPOS>MOLECULE
GDQ
   24    25     1     0     0
SMALL
No Charge or Current Charge


@<TRIPOS>ATOM
      1 C7          -0.1080    -1.7430     0.4570 c6         1 GDQ      -0.077400
      2 C4           0.4370     0.7480     0.4070 c6         1 GDQ       0.183300
      3 C2          -2.0220     0.0330     0.0630 cx         1 GDQ       0.026500
      4 C1          -1.6020    -1.3960     0.3260 cx         1 GDQ       0.071500
      5 O4           1.3750     1.7760     0.0590 oh         1 GDQ      -0.639000
      6 C5           0.8760    -0.6660    -0.0990 c6         1 GDQ      -0.066700
      7 C6           2.3400    -1.0490     0.2890 c3         1 GDQ       0.180600
      8 O6           3.3170    -0.5130    -0.6130 oh         1 GDQ      -0.642000
      9 C3          -0.9600     1.1310    -0.1750 c6         1 GDQ       0.141300
     10 O3          -1.4180     2.3760     0.3850 oh         1 GDQ      -0.663000
     11 N2          -2.2330    -1.0300    -0.9580 n5         1 GDQ      -0.780400
     12 H1           0.1000    -1.8990     1.5260 hc         1 GDQ       0.056200
     13 H2           0.0760    -2.7110    -0.0290 hc         1 GDQ       0.056200
     14 H3           0.3470     0.7000     1.5030 h1         1 GDQ       0.043700
     15 H4          -2.9220     0.3800     0.5760 h1         1 GDQ       0.107700
     16 H5          -2.2380    -1.9890     0.9890 h1         1 GDQ       0.104700
     17 H6           0.8820     2.6170     0.1870 ho         1 GDQ       0.454000
     18 H7           0.8260    -0.6860    -1.1970 hc         1 GDQ       0.069700
     19 H8           2.5360    -0.7150     1.3170 h1         1 GDQ       0.015200
     20 H9           2.4240    -2.1440     0.2840 h1         1 GDQ       0.015200
     21 H10          4.1990    -0.7390    -0.2440 ho         1 GDQ       0.440000
     22 H11         -0.8510     1.2410    -1.2650 h1         1 GDQ       0.048700
     23 H12         -2.2380     2.6220    -0.1000 ho         1 GDQ       0.452000
     24 H13         -1.5000    -0.9830    -1.6820 hn         1 GDQ       0.402000
@<TRIPOS>BOND
     1     1     4 1   
     2     1     6 1   
     3     1    12 1   
     4     1    13 1   
     5     2     5 1   
     6     2     6 1   
     7     2     9 1   
     8     2    14 1   
     9     3     4 1   
    10     3     9 1   
    11     3    11 1   
    12     3    15 1   
    13     4    11 1   
    14     4    16 1   
    15     5    17 1   
    16     6     7 1   
    17     6    18 1   
    18     7     8 1   
    19     7    19 1   
    20     7    20 1   
    21     8    21 1   
    22     9    10 1   
    23     9    22 1   
    24    10    23 1   
    25    11    24 1   
@<TRIPOS>SUBSTRUCTURE
     1 GDQ         1 TEMP              0 ****  ****    0 ROOT
