@<TRIPOS>MOLECULE
GDQ
   24    25     1     0     0
SMALL
bcc


@<TRIPOS>ATOM
      1 C7          -0.1000    -1.6900     0.5180 c6         1 GDQ      -0.077400
      2 C4           0.4040     0.7290     0.3650 c6         1 GDQ       0.160100
      3 C2          -2.0020    -0.0150     0.0170 cx         1 GDQ       0.026500
      4 C1          -1.5650    -1.3890     0.3480 cx         1 GDQ       0.071500
      5 O4           1.3490     1.6980    -0.0130 oh         1 GDQ      -0.576800
      6 C5           0.8370    -0.6530    -0.1090 c6         1 GDQ      -0.066700
      7 C6           2.2680    -1.0130     0.2740 c3         1 GDQ       0.157400
      8 O6           3.1940    -0.4040    -0.5940 oh         1 GDQ      -0.579800
      9 C3          -0.9760     1.0920    -0.1810 c6         1 GDQ       0.118100
     10 O3          -1.3680     2.2740     0.4860 oh         1 GDQ      -0.600800
     11 N2          -2.1070    -1.0850    -0.9650 n5         1 GDQ      -0.725200
     12 H1           0.1090    -1.7560     1.5920 hc         1 GDQ       0.056200
     13 H2           0.1190    -2.6790     0.1040 hc         1 GDQ       0.056200
     14 H3           0.3190     0.6820     1.4650 h1         1 GDQ       0.043700
     15 H4          -2.9610     0.3310     0.3940 h1         1 GDQ       0.107700
     16 H5          -2.2190    -2.0040     0.9600 h1         1 GDQ       0.104700
     17 H6           1.0210     2.5520     0.2890 ho         1 GDQ       0.415000
     18 H7           0.7660    -0.7130    -1.2040 hc         1 GDQ       0.069700
     19 H8           2.4380    -0.7290     1.3230 h1         1 GDQ       0.015200
     20 H9           2.3630    -2.1070     0.2310 h1         1 GDQ       0.015200
     21 H10          4.0690    -0.7270    -0.3600 ho         1 GDQ       0.401000
     22 H11         -0.8690     1.2850    -1.2600 h1         1 GDQ       0.048700
     23 H12         -2.0760     2.6920    -0.0140 ho         1 GDQ       0.413000
     24 H13         -1.3710    -1.0130    -1.6600 hn         1 GDQ       0.346800
@<TRIPOS>BOND
     1     1     4 1   
     2     1     6 1   
     3     1    12 1   
     4     1    13 1   
     5     2     5 1   
     6     2     6 1   
     7     2     9 1   
     8     2    14 1   
     9     3     4 1   
    10     3     9 1   
    11     3    11 1   
    12     3    15 1   
    13     4    11 1   
    14     4    16 1   
    15     5    17 1   
    16     6     7 1   
    17     6    18 1   
    18     7     8 1   
    19     7    19 1   
    20     7    20 1   
    21     8    21 1   
    22     9    10 1   
    23     9    22 1   
    24    10    23 1   
    25    11    24 1   
@<TRIPOS>SUBSTRUCTURE
     1 GDQ         1 TEMP              0 ****  ****    0 ROOT
