@<TRIPOS>MOLECULE
GDS
   68    67     1     0     0
SMALL
No Charge or Current Charge


@<TRIPOS>ATOM
      1 N1          64.6850    43.1290    24.7670 n8         1 GDS      -1.017700
      2 CA1         64.8970    41.8800    23.9470 c3         1 GDS       0.023500
      3 C1          65.2960    42.0820    22.4180 c          1 GDS       0.712000
      4 OE1         64.5220    42.6830    21.6810 o          1 GDS      -0.741000
      5 OE2         66.4110    41.7230    22.0600 o          1 GDS      -0.741000
      6 CB1         63.6910    40.9100    24.1320 c3         1 GDS      -0.082900
      7 CG1         62.3210    41.4280    23.6000 c3         1 GDS      -0.144900
      8 CD1         61.8270    40.6110    22.4020 c          1 GDS       0.597100
      9 O1          61.1100    39.6300    22.5300 o          1 GDS      -0.645100
     10 N2          62.2190    41.0930    21.1720 ns         1 GDS      -0.496900
     11 CA2         61.9490    40.4580    19.8480 c3         1 GDS       0.041200
     12 C2          60.4860    40.6810    19.3530 c          1 GDS       0.570600
     13 O2          60.0720    40.2100    18.2990 o          1 GDS      -0.697100
     14 CB2         62.3450    38.9600    19.7790 c3         1 GDS       0.058100
     15 SG2         64.1430    38.7100    20.1400 ss         1 GDS      -0.271500
     16 N3          59.6680    41.4350    20.1670 ns         1 GDS      -0.428400
     17 CA3         58.2540    41.7740    19.8870 c3         1 GDS      -0.049000
     18 C3          57.5930    42.5440    21.0650 c          1 GDS       0.716000
     19 OE3         56.3710    42.5880    21.1070 o          1 GDS      -0.734750
     20 OE4         58.3140    43.0520    21.9140 o          1 GDS      -0.734750
     21 CA4         62.2110    32.8090    19.8580 c3         1 GDS      -0.049000
     22 C4          62.3230    32.4380    21.3640 c          1 GDS       0.716000
     23 OE5         61.3950    31.8160    21.8690 o          1 GDS      -0.734750
     24 OE6         63.3260    32.7770    21.9830 o          1 GDS      -0.734750
     25 C5          63.5610    34.0290    18.0890 c          1 GDS       0.570600
     26 O5          62.7920    33.7040    17.1880 o          1 GDS      -0.697100
     27 CA5         64.8530    34.8610    17.8320 c3         1 GDS       0.041200
     28 N5          65.2520    34.7090    16.4120 ns         1 GDS      -0.496900
     29 CB5         64.6580    36.3580    18.1780 c3         1 GDS       0.058100
     30 SG5         64.3890    36.6370    19.9880 ss         1 GDS      -0.271500
     31 CA6         67.5470    33.1260    12.5720 c3         1 GDS       0.023500
     32 C6          68.1500    34.3190    11.7080 c          1 GDS       0.712000
     33 OE7         69.3320    34.6080    11.8510 o          1 GDS      -0.741000
     34 OE8         67.4320    34.8480    10.8670 o          1 GDS      -0.741000
     35 N6          68.2130    31.7820    12.4130 n8         1 GDS      -1.017700
     36 CB6         67.4720    33.4820    14.0830 c3         1 GDS      -0.082900
     37 CD6         66.4990    34.9860    15.9000 c          1 GDS       0.597100
     38 O6          67.4090    35.4080    16.5990 o          1 GDS      -0.645100
     39 HN11        64.2840    42.8730    25.6770 hn         1 GDS       0.387250
     40 HN12        63.9480    43.6900    24.3220 hn         1 GDS       0.387250
     41 HA1         65.7560    41.3700    24.4050 h1         1 GDS       0.040200
     42 HB11        63.9350    39.9540    23.6510 hc         1 GDS       0.039450
     43 HB12        63.5870    40.6820    25.2010 hc         1 GDS       0.039450
     44 HG11        61.5820    41.3530    24.4060 hc         1 GDS       0.061950
     45 HG12        62.4350    42.4750    23.2980 hc         1 GDS       0.061950
     46 HN2         62.9060    41.8490    21.2090 hn         1 GDS       0.357000
     47 HA2         62.5740    40.9900    19.1190 h1         1 GDS       0.087200
     48 HB21        61.7480    38.3670    20.4810 h1         1 GDS       0.084200
     49 HB22        62.1450    38.5780    18.7700 h1         1 GDS       0.084200
     50 HN3         60.0800    41.7850    21.0250 hn         1 GDS       0.362000
     51 HA31        58.2060    42.4030    18.9890 h1         1 GDS       0.036700
     52 HA32        57.6900    40.8490    19.7080 h1         1 GDS       0.036700
     53 HN4         64.0200    33.9460    20.0910 hn         1 GDS       0.362000
     54 HA41        61.2770    33.3620    19.7020 h1         1 GDS       0.036700
     55 HA42        62.1800    31.8810    19.2740 h1         1 GDS       0.036700
     56 HA5         65.6500    34.4460    18.4640 h1         1 GDS       0.087200
     57 HN5         64.5580    34.3500    15.7620 hn         1 GDS       0.357000
     58 HB51        65.5490    36.9250    17.8780 h1         1 GDS       0.084200
     59 HB52        63.8000    36.7570    17.6210 h1         1 GDS       0.084200
     60 HA6         66.5110    32.9950    12.2280 h1         1 GDS       0.040200
     61 HN61        67.8510    31.1360    13.1240 hn         1 GDS       0.387250
     62 HN62        69.2080    31.8800    12.6520 hn         1 GDS       0.387250
     63 HB61        67.0220    32.6400    14.6270 hc         1 GDS       0.039450
     64 HB62        68.4870    33.6080    14.4810 hc         1 GDS       0.039450
     65 HG61        67.1630    35.6250    13.9590 hc         1 GDS       0.061950
     66 HG62        65.6580    34.6500    13.9300 hc         1 GDS       0.061950
     67 CG6         66.6480    34.7590    14.3900 c3         1 GDS      -0.144900
     68 N4          63.3480    33.6370    19.3940 ns         1 GDS      -0.428400
@<TRIPOS>BOND
     1     1     2 1   
     2     1    39 1   
     3     1    40 1   
     4     2     3 1   
     5     2     6 1   
     6     2    41 1   
     7     3     4 1   
     8     3     5 1   
     9     6     7 1   
    10     6    42 1   
    11     6    43 1   
    12     7     8 1   
    13     7    44 1   
    14     7    45 1   
    15     8     9 2   
    16     8    10 1   
    17    10    11 1   
    18    10    46 1   
    19    11    12 1   
    20    11    14 1   
    21    11    47 1   
    22    12    13 2   
    23    12    16 1   
    24    14    15 1   
    25    14    48 1   
    26    14    49 1   
    27    15    30 1   
    28    16    17 1   
    29    16    50 1   
    30    17    18 1   
    31    17    51 1   
    32    17    52 1   
    33    18    19 1   
    34    18    20 1   
    35    21    22 1   
    36    21    54 1   
    37    21    55 1   
    38    21    68 1   
    39    22    23 1   
    40    22    24 1   
    41    25    26 2   
    42    25    27 1   
    43    25    68 1   
    44    27    28 1   
    45    27    29 1   
    46    27    56 1   
    47    28    37 1   
    48    28    57 1   
    49    29    30 1   
    50    29    58 1   
    51    29    59 1   
    52    31    32 1   
    53    31    35 1   
    54    31    36 1   
    55    31    60 1   
    56    32    33 1   
    57    32    34 1   
    58    35    61 1   
    59    35    62 1   
    60    36    63 1   
    61    36    64 1   
    62    36    67 1   
    63    37    38 2   
    64    37    67 1   
    65    53    68 1   
    66    65    67 1   
    67    66    67 1   
@<TRIPOS>SUBSTRUCTURE
     1 GDS         1 TEMP              0 ****  ****    0 ROOT
