@<TRIPOS>MOLECULE
GDS
   68    67     1     0     0
SMALL
abcg2


@<TRIPOS>ATOM
      1 N1          66.1890    41.6260    23.7420 n8         1 GDS      -1.017700
      2 CA1         65.5440    42.0810    22.5060 c3         1 GDS       0.023500
      3 C1          64.1350    42.6490    22.7950 c          1 GDS       0.712000
      4 OE1         63.5460    43.1730    21.8040 o          1 GDS      -0.741000
      5 OE2         63.6660    42.5330    23.9480 o          1 GDS      -0.741000
      6 CB1         65.4950    40.9990    21.4100 c3         1 GDS      -0.082900
      7 CG1         64.6030    39.7800    21.7210 c3         1 GDS      -0.144900
      8 CD1         63.3080    39.6270    20.9420 c          1 GDS       0.597100
      9 O1          62.8800    38.4940    20.6690 o          1 GDS      -0.645100
     10 N2          62.6590    40.7510    20.6090 ns         1 GDS      -0.496900
     11 CA2         61.4560    40.8640    19.7970 c3         1 GDS       0.041200
     12 C2          60.1450    40.4150    20.4710 c          1 GDS       0.570600
     13 O2          59.1410    41.1280    20.3610 o          1 GDS      -0.697100
     14 CB2         61.5570    40.1880    18.4260 c3         1 GDS       0.058100
     15 SG2         62.8840    40.8380    17.3540 ss         1 GDS      -0.271500
     16 N3          60.1530    39.2480    21.1170 ns         1 GDS      -0.428400
     17 CA3         58.9660    38.6850    21.7290 c3         1 GDS      -0.049000
     18 C3          59.2260    37.2880    22.3280 c          1 GDS       0.716000
     19 OE3         58.2300    36.7500    22.8680 o          1 GDS      -0.734750
     20 OE4         60.3680    36.7920    22.1790 o          1 GDS      -0.734750
     21 CA4         60.8640    36.5040    18.4680 c3         1 GDS      -0.049000
     22 C4          60.5060    35.0030    18.6270 c          1 GDS       0.716000
     23 OE5         59.2730    34.7840    18.7370 o          1 GDS      -0.734750
     24 OE6         61.4320    34.1640    18.6820 o          1 GDS      -0.734750
     25 C5          62.9320    36.7820    17.1950 c          1 GDS       0.570600
     26 O5          62.4030    36.5350    16.1070 o          1 GDS      -0.697100
     27 CA5         64.4340    37.0700    17.2560 c3         1 GDS       0.041200
     28 N5          65.0740    36.0500    16.4450 ns         1 GDS      -0.496900
     29 CB5         64.7980    38.4650    16.7120 c3         1 GDS       0.058100
     30 SG5         64.6060    39.8530    17.8880 ss         1 GDS      -0.271500
     31 CA6         66.9460    31.9060    15.5040 c3         1 GDS       0.023500
     32 C6          68.4270    31.9780    15.0600 c          1 GDS       0.712000
     33 OE7         69.2790    31.5440    15.8770 o          1 GDS      -0.741000
     34 OE8         68.6620    32.4630    13.9250 o          1 GDS      -0.741000
     35 N6          66.6920    30.6080    16.1420 n8         1 GDS      -1.017700
     36 CB6         66.6040    33.0910    16.4250 c3         1 GDS      -0.082900
     37 CD6         66.3090    35.5660    16.6890 c          1 GDS       0.597100
     38 O6          67.0040    35.9680    17.6270 o          1 GDS      -0.645100
     39 HN11        66.7150    40.7740    23.5860 hn         1 GDS       0.387250
     40 HN12        65.4600    41.4280    24.4200 hn         1 GDS       0.387250
     41 HA1         66.1170    42.9150    22.0870 h1         1 GDS       0.040200
     42 HB11        65.1950    41.4590    20.4680 hc         1 GDS       0.039450
     43 HB12        66.5180    40.6490    21.2590 hc         1 GDS       0.039450
     44 HG11        65.1460    38.8520    21.5520 hc         1 GDS       0.061950
     45 HG12        64.3290    39.7760    22.7820 hc         1 GDS       0.061950
     46 HN2         63.0290    41.6430    20.9470 hn         1 GDS       0.357000
     47 HA2         61.3230    41.9320    19.6360 h1         1 GDS       0.087200
     48 HB21        61.6810    39.1180    18.5130 h1         1 GDS       0.084200
     49 HB22        60.6390    40.3860    17.8700 h1         1 GDS       0.084200
     50 HN3         60.9960    38.6790    21.1310 hn         1 GDS       0.362000
     51 HA31        58.5970    39.3390    22.5230 h1         1 GDS       0.036700
     52 HA32        58.1630    38.6020    20.9920 h1         1 GDS       0.036700
     53 HN4         62.7750    37.0550    19.1990 hn         1 GDS       0.362000
     54 HA41        60.4740    37.0310    19.3370 h1         1 GDS       0.036700
     55 HA42        60.3470    36.8830    17.5870 h1         1 GDS       0.036700
     56 HA5         64.8050    36.9740    18.2750 h1         1 GDS       0.087200
     57 HN5         64.5480    35.7120    15.6540 hn         1 GDS       0.357000
     58 HB51        65.8620    38.4630    16.4740 h1         1 GDS       0.084200
     59 HB52        64.2460    38.6930    15.8010 h1         1 GDS       0.084200
     60 HA6         66.3270    31.9800    14.6070 h1         1 GDS       0.040200
     61 HN61        65.8150    30.6400    16.6540 hn         1 GDS       0.387250
     62 HN62        67.4290    30.4550    16.8250 hn         1 GDS       0.387250
     63 HB61        65.5650    32.9740    16.7500 hc         1 GDS       0.039450
     64 HB62        67.2310    33.0350    17.3190 hc         1 GDS       0.039450
     65 HG61        67.8170    34.6440    15.5230 hc         1 GDS       0.061950
     66 HG62        66.2040    34.4910    14.8270 hc         1 GDS       0.061950
     67 CG6         66.7690    34.4650    15.7610 c3         1 GDS      -0.144900
     68 N4          62.2760    36.8030    18.3560 ns         1 GDS      -0.428400
@<TRIPOS>BOND
     1     1     2 1   
     2     1    39 1   
     3     1    40 1   
     4     2     3 1   
     5     2     6 1   
     6     2    41 1   
     7     3     4 1   
     8     3     5 1   
     9     6     7 1   
    10     6    42 1   
    11     6    43 1   
    12     7     8 1   
    13     7    44 1   
    14     7    45 1   
    15     8     9 2   
    16     8    10 1   
    17    10    11 1   
    18    10    46 1   
    19    11    12 1   
    20    11    14 1   
    21    11    47 1   
    22    12    13 2   
    23    12    16 1   
    24    14    15 1   
    25    14    48 1   
    26    14    49 1   
    27    15    30 1   
    28    16    17 1   
    29    16    50 1   
    30    17    18 1   
    31    17    51 1   
    32    17    52 1   
    33    18    19 1   
    34    18    20 1   
    35    21    22 1   
    36    21    54 1   
    37    21    55 1   
    38    21    68 1   
    39    22    23 1   
    40    22    24 1   
    41    25    26 2   
    42    25    27 1   
    43    25    68 1   
    44    27    28 1   
    45    27    29 1   
    46    27    56 1   
    47    28    37 1   
    48    28    57 1   
    49    29    30 1   
    50    29    58 1   
    51    29    59 1   
    52    31    32 1   
    53    31    35 1   
    54    31    36 1   
    55    31    60 1   
    56    32    33 1   
    57    32    34 1   
    58    35    61 1   
    59    35    62 1   
    60    36    63 1   
    61    36    64 1   
    62    36    67 1   
    63    37    38 2   
    64    37    67 1   
    65    53    68 1   
    66    65    67 1   
    67    66    67 1   
@<TRIPOS>SUBSTRUCTURE
     1 GDS         1 TEMP              0 ****  ****    0 ROOT
