@<TRIPOS>MOLECULE
GDT
   81    81     1     0     0
SMALL
No Charge or Current Charge


@<TRIPOS>ATOM
      1 C1          -3.2920     1.0580    -0.3350 ce         1 GDT      -0.301200
      2 C2          -4.4420     1.7750    -0.1990 cf         1 GDT      -0.092000
      3 C3          -5.7370     1.3500    -0.7110 cf         1 GDT      -0.215000
      4 C4          -6.8760     2.0640    -0.5710 c2         1 GDT      -0.172200
      5 C5          -8.2370     1.6510    -1.0880 c3         1 GDT      -0.050200
      6 C6          -8.9380     0.6460    -0.1500 c3         1 GDT      -0.072400
      7 O37         -1.7860     2.5290     0.7830 o          1 GDT      -0.618100
      8 C12         -1.9640     1.4800     0.1830 c          1 GDT       0.611300
      9 N13         -0.9470     0.5950    -0.0810 ns         1 GDT      -0.486900
     10 C14          0.4660     0.7580     0.3560 c3         1 GDT      -0.002300
     11 C34          0.7590     0.0740     1.7270 c3         1 GDT       0.169300
     12 C36          0.1910     0.8550     2.9280 c3         1 GDT      -0.088100
     13 O35          0.2260    -1.2590     1.7610 oh         1 GDT      -0.659000
     14 C15          1.4290     0.2200    -0.7310 c          1 GDT       0.576100
     15 O33          1.0890    -0.5820    -1.5900 o          1 GDT      -0.595100
     16 N16          2.7190     0.6990    -0.6610 ns         1 GDT      -0.513900
     17 C17          3.7740     0.4540    -1.6700 c3         1 GDT       0.024700
     18 C31          4.5570    -0.8720    -1.4320 c          1 GDT       0.589100
     19 O32          5.3690    -1.2780    -2.2520 o          1 GDT      -0.605100
     20 N30          4.2710    -1.5480    -0.2540 ns         1 GDT      -0.487900
     21 C28          4.9910    -2.6920     0.3270 c3         1 GDT       0.155900
     22 C29          5.3130    -3.8390    -0.6540 c3         1 GDT      -0.094100
     23 C27          6.2090    -2.1530     1.0450 c2         1 GDT      -0.230200
     24 C26          7.2280    -1.4870     0.4500 ce         1 GDT      -0.231200
     25 C24          8.2570    -0.6980     1.1720 c          1 GDT       0.600300
     26 O25          8.8270    -1.0970     2.1750 o          1 GDT      -0.591100
     27 N23          8.4470     0.5910     0.7210 ns         1 GDT      -0.512900
     28 C22          7.5800     1.3130    -0.2300 c3         1 GDT       0.111000
     29 C21          6.1820     1.6120     0.3700 c3         1 GDT      -0.140400
     30 C19          5.2440     2.4300    -0.5480 c3         1 GDT       0.176300
     31 O20          4.1510     2.9150     0.2400 oh         1 GDT      -0.682000
     32 C18          4.7050     1.7050    -1.8260 c3         1 GDT      -0.080400
     33 C7         -10.3320     0.2140    -0.6560 c3         1 GDT      -0.074400
     34 C8         -11.0310    -0.7920     0.2840 c3         1 GDT      -0.075400
     35 C9         -12.4250    -1.2250    -0.2210 c3         1 GDT      -0.075400
     36 C10        -13.1250    -2.2300     0.7190 c3         1 GDT      -0.074400
     37 C11        -14.5150    -2.6620     0.2150 c3         1 GDT      -0.088100
     38 H1          -3.3240     0.1040    -0.8570 ha         1 GDT       0.183000
     39 H2          -4.4030     2.7340     0.3270 ha         1 GDT       0.192000
     40 H3          -5.7730     0.3920    -1.2350 ha         1 GDT       0.176000
     41 H4          -6.8580     3.0230    -0.0480 ha         1 GDT       0.172000
     42 H5          -8.8730     2.5370    -1.2060 hc         1 GDT       0.049200
     43 H5A         -8.1380     1.2050    -2.0860 hc         1 GDT       0.049200
     44 H6          -8.3040    -0.2420    -0.0370 hc         1 GDT       0.041700
     45 H6A         -9.0380     1.0960     0.8460 hc         1 GDT       0.041700
     46 HN13        -1.1930    -0.2350    -0.6070 hn         1 GDT       0.338500
     47 H14          0.6860     1.8290     0.4480 h1         1 GDT       0.099700
     48 H34          1.8480     0.0350     1.8610 h1         1 GDT       0.019700
     49 H36         -0.9040     0.8830     2.8990 hc         1 GDT       0.051033
     50 H36A         0.4940     0.3810     3.8700 hc         1 GDT       0.051033
     51 H36B         0.5650     1.8850     2.9310 hc         1 GDT       0.051033
     52 HO35         0.5490    -1.7320     0.9630 ho         1 GDT       0.454000
     53 HN16         2.9120     1.4250     0.0290 hn         1 GDT       0.348500
     54 H17          3.2790     0.3030    -2.6380 h1         1 GDT       0.100700
     55 HN30         3.5680    -1.1070     0.3240 hn         1 GDT       0.307500
     56 H28          4.3200    -3.1150     1.0870 h1         1 GDT       0.053700
     57 H29          6.0880    -3.5560    -1.3740 hc         1 GDT       0.053033
     58 H29A         5.6810    -4.7120    -0.1010 hc         1 GDT       0.053033
     59 H29B         4.4140    -4.1400    -1.2040 hc         1 GDT       0.053033
     60 H27          6.1620    -2.2350     2.1320 ha         1 GDT       0.167000
     61 H26          7.2190    -1.3370    -0.6230 ha         1 GDT       0.214000
     62 HN23         9.1450     1.1260     1.2250 hn         1 GDT       0.314500
     63 H22          8.0700     2.2630    -0.4820 h1         1 GDT       0.060700
     64 H22A         7.4860     0.7400    -1.1610 h1         1 GDT       0.060700
     65 H21          5.6810     0.6850     0.6650 hc         1 GDT       0.051700
     66 H21A         6.3400     2.1760     1.2980 hc         1 GDT       0.051700
     67 H19          5.8220     3.2950    -0.9030 h1         1 GDT       0.038700
     68 HO20         4.5150     3.6010     0.8430 ho         1 GDT       0.454000
     69 H18          5.5520     1.4410    -2.4700 hc         1 GDT       0.073200
     70 H18A         4.1400     2.4540    -2.3950 hc         1 GDT       0.073200
     71 H7         -10.9660     1.1020    -0.7680 hc         1 GDT       0.038700
     72 H7A        -10.2310    -0.2350    -1.6520 hc         1 GDT       0.038700
     73 H8         -10.3970    -1.6810     0.3970 hc         1 GDT       0.037700
     74 H8A        -11.1330    -0.3430     1.2810 hc         1 GDT       0.037700
     75 H9         -13.0590    -0.3360    -0.3340 hc         1 GDT       0.037700
     76 H9A        -12.3240    -1.6740    -1.2170 hc         1 GDT       0.037700
     77 H10        -12.4940    -3.1210     0.8320 hc         1 GDT       0.036700
     78 H10A       -13.2300    -1.7840     1.7160 hc         1 GDT       0.036700
     79 H11        -14.4390    -3.1450    -0.7670 hc         1 GDT       0.031367
     80 H11A       -14.9710    -3.3740     0.9130 hc         1 GDT       0.031367
     81 H11B       -15.1810    -1.7950     0.1250 hc         1 GDT       0.031367
@<TRIPOS>BOND
     1     1     2 2   
     2     1     8 1   
     3     1    38 1   
     4     2     3 1   
     5     2    39 1   
     6     3     4 2   
     7     3    40 1   
     8     4     5 1   
     9     4    41 1   
    10     5     6 1   
    11     5    42 1   
    12     5    43 1   
    13     6    33 1   
    14     6    44 1   
    15     6    45 1   
    16     7     8 2   
    17     8     9 1   
    18     9    10 1   
    19     9    46 1   
    20    10    11 1   
    21    10    14 1   
    22    10    47 1   
    23    11    12 1   
    24    11    13 1   
    25    11    48 1   
    26    12    49 1   
    27    12    50 1   
    28    12    51 1   
    29    13    52 1   
    30    14    15 2   
    31    14    16 1   
    32    16    17 1   
    33    16    53 1   
    34    17    18 1   
    35    17    32 1   
    36    17    54 1   
    37    18    19 2   
    38    18    20 1   
    39    20    21 1   
    40    20    55 1   
    41    21    22 1   
    42    21    23 1   
    43    21    56 1   
    44    22    57 1   
    45    22    58 1   
    46    22    59 1   
    47    23    24 2   
    48    23    60 1   
    49    24    25 1   
    50    24    61 1   
    51    25    26 2   
    52    25    27 1   
    53    27    28 1   
    54    27    62 1   
    55    28    29 1   
    56    28    63 1   
    57    28    64 1   
    58    29    30 1   
    59    29    65 1   
    60    29    66 1   
    61    30    31 1   
    62    30    32 1   
    63    30    67 1   
    64    31    68 1   
    65    32    69 1   
    66    32    70 1   
    67    33    34 1   
    68    33    71 1   
    69    33    72 1   
    70    34    35 1   
    71    34    73 1   
    72    34    74 1   
    73    35    36 1   
    74    35    75 1   
    75    35    76 1   
    76    36    37 1   
    77    36    77 1   
    78    36    78 1   
    79    37    79 1   
    80    37    80 1   
    81    37    81 1   
@<TRIPOS>SUBSTRUCTURE
     1 GDT         1 TEMP              0 ****  ****    0 ROOT
