@<TRIPOS>MOLECULE
GDT
   81    81     1     0     0
SMALL
abcg2


@<TRIPOS>ATOM
      1 C1          -3.1560     0.5300    -0.6690 ce         1 GDT      -0.301200
      2 C2          -4.3050     1.1910    -0.4780 cf         1 GDT      -0.092000
      3 C3          -5.5690     0.7970    -1.0570 cf         1 GDT      -0.215000
      4 C4          -6.7180     1.4330    -0.7970 c2         1 GDT      -0.172200
      5 C5          -8.0540     1.0300    -1.3210 c3         1 GDT      -0.050200
      6 C6          -8.9730     0.5340    -0.2010 c3         1 GDT      -0.072400
      7 O37         -1.7930     1.9870     0.6300 o          1 GDT      -0.618100
      8 C12         -1.8970     0.9580    -0.0260 c          1 GDT       0.611300
      9 N13         -0.8690     0.1040    -0.2240 ns         1 GDT      -0.486900
     10 C14          0.4390     0.2840     0.3350 c3         1 GDT      -0.002300
     11 C34          0.7160    -0.7070     1.4920 c3         1 GDT       0.169300
     12 C36         -0.2510    -0.5030     2.6400 c3         1 GDT      -0.088100
     13 O35          0.5980    -2.0460     1.0670 oh         1 GDT      -0.659000
     14 C15          1.4920     0.0890    -0.7480 c          1 GDT       0.576100
     15 O33          1.3230    -0.6900    -1.6740 o          1 GDT      -0.595100
     16 N16          2.6390     0.7630    -0.5510 ns         1 GDT      -0.513900
     17 C17          3.7560     0.6520    -1.4610 c3         1 GDT       0.024700
     18 C31          4.6640    -0.5550    -1.1990 c          1 GDT       0.589100
     19 O32          5.5470    -0.8090    -2.0030 o          1 GDT      -0.605100
     20 N30          4.4160    -1.2900    -0.1010 ns         1 GDT      -0.487900
     21 C28          5.3630    -2.2710     0.4490 c3         1 GDT       0.155900
     22 C29          5.6850    -3.4180    -0.4920 c3         1 GDT      -0.094100
     23 C27          6.5370    -1.4800     0.9640 c2         1 GDT      -0.230200
     24 C26          7.6850    -1.2580     0.3380 ce         1 GDT      -0.231200
     25 C24          8.6810    -0.2920     0.8930 c          1 GDT       0.600300
     26 O25          9.6570    -0.6690     1.5280 o          1 GDT      -0.591100
     27 N23          8.4240     1.0060     0.6510 ns         1 GDT      -0.512900
     28 C22          7.3820     1.5410    -0.2080 c3         1 GDT       0.111000
     29 C21          6.0770     1.8440     0.5240 c3         1 GDT      -0.140400
     30 C19          5.0750     2.6410    -0.3080 c3         1 GDT       0.176300
     31 O20          3.9450     2.9950     0.4790 oh         1 GDT      -0.682000
     32 C18          4.5460     1.9670    -1.5730 c3         1 GDT      -0.080400
     33 C7         -10.3570     0.1390    -0.7000 c3         1 GDT      -0.074400
     34 C8         -11.2550    -0.3950     0.4090 c3         1 GDT      -0.075400
     35 C9         -12.6390    -0.8060    -0.0760 c3         1 GDT      -0.075400
     36 C10        -13.5220    -1.3640     1.0340 c3         1 GDT      -0.074400
     37 C11        -14.9030    -1.7770     0.5450 c3         1 GDT      -0.088100
     38 H1          -3.1340    -0.3560    -1.2960 ha         1 GDT       0.183000
     39 H2          -4.3080     2.0700     0.1610 ha         1 GDT       0.192000
     40 H3          -5.5700    -0.0640    -1.7200 ha         1 GDT       0.176000
     41 H4          -6.7020     2.2880    -0.1250 ha         1 GDT       0.172000
     42 H5          -8.5240     1.8890    -1.8120 hc         1 GDT       0.049200
     43 H5A         -7.9420     0.2510    -2.0800 hc         1 GDT       0.049200
     44 H6          -8.5040    -0.3230     0.2910 hc         1 GDT       0.041700
     45 H6A         -9.0690     1.3120     0.5640 hc         1 GDT       0.041700
     46 HN13        -1.0340    -0.7390    -0.7510 hn         1 GDT       0.338500
     47 H14          0.5050     1.2960     0.7390 h1         1 GDT       0.099700
     48 H34          1.7310    -0.4950     1.8590 h1         1 GDT       0.019700
     49 H36         -1.2750    -0.7310     2.3420 hc         1 GDT       0.051033
     50 H36A         0.0130    -1.1530     3.4740 hc         1 GDT       0.051033
     51 H36B        -0.2160     0.5270     2.9920 hc         1 GDT       0.051033
     52 HO35         1.2770    -2.2530     0.4180 ho         1 GDT       0.454000
     53 HN16         2.6960     1.4880     0.1530 hn         1 GDT       0.348500
     54 H17          3.3560     0.4670    -2.4620 h1         1 GDT       0.100700
     55 HN30         3.7610    -0.9030     0.5590 hn         1 GDT       0.307500
     56 H28          4.8440    -2.6950     1.3100 h1         1 GDT       0.053700
     57 H29          6.2630    -3.1140    -1.3590 hc         1 GDT       0.053033
     58 H29A         6.2520    -4.1750     0.0500 hc         1 GDT       0.053033
     59 H29B         4.7630    -3.8810    -0.8460 hc         1 GDT       0.053033
     60 H27          6.3390    -0.9530     1.8940 ha         1 GDT       0.167000
     61 H26          7.9470    -1.7590    -0.5880 ha         1 GDT       0.214000
     62 HN23         9.0790     1.6690     1.0420 hn         1 GDT       0.314500
     63 H22          7.7750     2.4610    -0.6460 h1         1 GDT       0.060700
     64 H22A         7.2130     0.8530    -1.0340 h1         1 GDT       0.060700
     65 H21          5.6190     0.9210     0.8820 hc         1 GDT       0.051700
     66 H21A         6.3180     2.4320     1.4170 hc         1 GDT       0.051700
     67 H19          5.5830     3.5540    -0.6500 h1         1 GDT       0.038700
     68 HO20         4.2470     3.3700     1.3130 ho         1 GDT       0.454000
     69 H18          5.3770     1.7970    -2.2600 hc         1 GDT       0.073200
     70 H18A         3.8970     2.6860    -2.0780 hc         1 GDT       0.073200
     71 H7         -10.8350     1.0030    -1.1750 hc         1 GDT       0.038700
     72 H7A        -10.2560    -0.6210    -1.4840 hc         1 GDT       0.038700
     73 H8         -10.7680    -1.2550     0.8830 hc         1 GDT       0.037700
     74 H8A        -11.3560     0.3640     1.1920 hc         1 GDT       0.037700
     75 H9         -13.1350     0.0560    -0.5360 hc         1 GDT       0.037700
     76 H9A        -12.5380    -1.5560    -0.8690 hc         1 GDT       0.037700
     77 H10        -13.0240    -2.2250     1.4910 hc         1 GDT       0.036700
     78 H10A       -13.6220    -0.6170     1.8280 hc         1 GDT       0.036700
     79 H11        -14.8340    -2.5450    -0.2270 hc         1 GDT       0.031367
     80 H11A       -15.5130    -2.1780     1.3560 hc         1 GDT       0.031367
     81 H11B       -15.4420    -0.9290     0.1170 hc         1 GDT       0.031367
@<TRIPOS>BOND
     1     1     2 2   
     2     1     8 1   
     3     1    38 1   
     4     2     3 1   
     5     2    39 1   
     6     3     4 2   
     7     3    40 1   
     8     4     5 1   
     9     4    41 1   
    10     5     6 1   
    11     5    42 1   
    12     5    43 1   
    13     6    33 1   
    14     6    44 1   
    15     6    45 1   
    16     7     8 2   
    17     8     9 1   
    18     9    10 1   
    19     9    46 1   
    20    10    11 1   
    21    10    14 1   
    22    10    47 1   
    23    11    12 1   
    24    11    13 1   
    25    11    48 1   
    26    12    49 1   
    27    12    50 1   
    28    12    51 1   
    29    13    52 1   
    30    14    15 2   
    31    14    16 1   
    32    16    17 1   
    33    16    53 1   
    34    17    18 1   
    35    17    32 1   
    36    17    54 1   
    37    18    19 2   
    38    18    20 1   
    39    20    21 1   
    40    20    55 1   
    41    21    22 1   
    42    21    23 1   
    43    21    56 1   
    44    22    57 1   
    45    22    58 1   
    46    22    59 1   
    47    23    24 2   
    48    23    60 1   
    49    24    25 1   
    50    24    61 1   
    51    25    26 2   
    52    25    27 1   
    53    27    28 1   
    54    27    62 1   
    55    28    29 1   
    56    28    63 1   
    57    28    64 1   
    58    29    30 1   
    59    29    65 1   
    60    29    66 1   
    61    30    31 1   
    62    30    32 1   
    63    30    67 1   
    64    31    68 1   
    65    32    69 1   
    66    32    70 1   
    67    33    34 1   
    68    33    71 1   
    69    33    72 1   
    70    34    35 1   
    71    34    73 1   
    72    34    74 1   
    73    35    36 1   
    74    35    75 1   
    75    35    76 1   
    76    36    37 1   
    77    36    77 1   
    78    36    78 1   
    79    37    79 1   
    80    37    80 1   
    81    37    81 1   
@<TRIPOS>SUBSTRUCTURE
     1 GDT         1 TEMP              0 ****  ****    0 ROOT
