@<TRIPOS>MOLECULE
GDU
   58    60     1     0     0
SMALL
No Charge or Current Charge


@<TRIPOS>ATOM
      1 N1           0.7950    -1.6720     2.3890 n          1 GDU      -0.304000
      2 C2           1.7700    -0.7690     1.9050 c          1 GDU       0.615000
      3 N3           3.0460    -1.2410     1.8490 ns         1 GDU      -0.474500
      4 C4           3.5030    -2.4680     2.1950 c          1 GDU       0.599200
      5 C5           2.4640    -3.3560     2.6970 cc         1 GDU      -0.417200
      6 C6           1.1500    -2.9590     2.7840 cd         1 GDU       0.050600
      7 O2           1.5420     0.3850     1.5850 o          1 GDU      -0.514000
      8 O4           4.6770    -2.7760     2.0970 o          1 GDU      -0.567000
      9 C1D         -0.6450    -1.2960     2.4120 c5         1 GDU       0.353700
     10 C2D         -0.9030    -0.3690     3.6410 c5         1 GDU       0.067300
     11 O2D         -0.9620    -1.0470     4.9180 oh         1 GDU      -0.726000
     12 C3D         -2.3020     0.1630     3.2220 c5         1 GDU       0.103300
     13 C4D         -2.0920     0.4080     1.6800 c5         1 GDU       0.159300
     14 O4D         -1.0770    -0.5510     1.2610 os         1 GDU      -0.407000
     15 O3D         -3.2940    -0.8290     3.5120 oh         1 GDU      -0.709000
     16 C5D         -1.5920     1.8500     1.3610 c3         1 GDU       0.227600
     17 O5D         -1.7330     2.1390    -0.0380 os         1 GDU      -0.576400
     18 PA          -3.1320     2.6950    -0.6120 p5         1 GDU       1.467800
     19 O1A         -4.3260     1.9360    -0.1420 o          1 GDU      -0.849500
     20 O2A         -3.2710     4.1410    -0.2650 o          1 GDU      -0.849500
     21 O3A         -2.9040     2.5550    -2.1630 os         1 GDU      -0.687800
     22 PB          -2.5330     1.1230    -2.7030 p5         1 GDU       1.497800
     23 O1B         -2.8220    -0.0340    -1.8100 o          1 GDU      -0.844500
     24 O2B         -3.1490     0.9300    -4.0460 o          1 GDU      -0.844500
     25 O3B         -0.9530     1.3230    -2.8440 os         1 GDU      -0.625400
     26 C1          -0.2000     0.3660    -3.5960 c6         1 GDU       0.428300
     27 C7          -0.0070    -1.0520    -2.9010 c6         1 GDU       0.110300
     28 C3           0.8600    -0.9060    -1.6140 c6         1 GDU       0.104300
     29 C8           2.1980    -0.1700    -1.9130 c6         1 GDU       0.149300
     30 C9           1.8940     1.1760    -2.6520 c6         1 GDU       0.183300
     31 C10          3.1990     1.9460    -3.0460 c3         1 GDU       0.168600
     32 O7          -1.2170    -1.7970    -2.5880 oh         1 GDU      -0.799000
     33 O3           1.1260    -2.2220    -1.0850 oh         1 GDU      -0.716000
     34 O8           3.0340    -1.0610    -2.6730 oh         1 GDU      -0.733000
     35 O5           1.0960     0.9500    -3.8500 os         1 GDU      -0.453000
     36 O6           2.9490     3.2160    -3.6800 oh         1 GDU      -0.696000
     37 HN3          3.7380    -0.5950     1.5080 hn         1 GDU       0.337500
     38 H5           2.7880    -4.3480     2.9900 ha         1 GDU       0.209000
     39 H6           0.3320    -3.5820     3.1430 h4         1 GDU       0.203000
     40 H1D         -1.2340    -2.2190     2.4880 h2         1 GDU       0.059700
     41 H2D         -0.1750     0.4560     3.6680 h1         1 GDU       0.088700
     42 HO2         -0.0330    -1.1990     5.2190 ho         1 GDU       0.503000
     43 H3D         -2.5420     1.0980     3.7480 h1         1 GDU       0.056700
     44 H4D         -3.0210     0.2120     1.1320 h1         1 GDU       0.112700
     45 HO3         -2.9360    -1.2800     4.3170 ho         1 GDU       0.496000
     46 H5'1        -0.5450     1.9550     1.6700 h1         1 GDU       0.023200
     47 H5'2        -2.1770     2.5650     1.9540 h1         1 GDU       0.023200
     48 H1          -0.6950     0.2070    -4.5670 h2         1 GDU       0.067700
     49 H2           0.5780    -1.6500    -3.6160 h1         1 GDU       0.044700
     50 H3           0.2960    -0.3000    -0.8880 h1         1 GDU       0.101700
     51 H4           2.6880     0.0640    -0.9570 h1         1 GDU       0.017700
     52 H7           1.3330     1.8280    -1.9660 h1         1 GDU       0.091700
     53 H6'1         3.7900     1.3090    -3.7170 h1         1 GDU       0.016700
     54 H6'2         3.7920     2.0980    -2.1350 h1         1 GDU       0.016700
     55 HO2A        -1.8830    -1.1380    -2.1800 ho         1 GDU       0.593000
     56 HO3A         0.2890    -2.7170    -1.2510 ho         1 GDU       0.468000
     57 HO4          2.7770    -1.9480    -2.3210 ho         1 GDU       0.504000
     58 HO6          3.8220     3.5710    -3.9620 ho         1 GDU       0.473000
@<TRIPOS>BOND
     1     1     2 1   
     2     1     6 1   
     3     1     9 1   
     4     2     3 1   
     5     2     7 2   
     6     3     4 1   
     7     3    37 1   
     8     4     5 1   
     9     4     8 2   
    10     5     6 2   
    11     5    38 1   
    12     6    39 1   
    13     9    10 1   
    14     9    14 1   
    15     9    40 1   
    16    10    11 1   
    17    10    12 1   
    18    10    41 1   
    19    11    42 1   
    20    12    13 1   
    21    12    15 1   
    22    12    43 1   
    23    13    14 1   
    24    13    16 1   
    25    13    44 1   
    26    15    45 1   
    27    16    17 1   
    28    16    46 1   
    29    16    47 1   
    30    17    18 1   
    31    18    19 1   
    32    18    20 1   
    33    18    21 1   
    34    21    22 1   
    35    22    23 1   
    36    22    24 1   
    37    22    25 1   
    38    25    26 1   
    39    26    27 1   
    40    26    35 1   
    41    26    48 1   
    42    27    28 1   
    43    27    32 1   
    44    27    49 1   
    45    28    29 1   
    46    28    33 1   
    47    28    50 1   
    48    29    30 1   
    49    29    34 1   
    50    29    51 1   
    51    30    31 1   
    52    30    35 1   
    53    30    52 1   
    54    31    36 1   
    55    31    53 1   
    56    31    54 1   
    57    32    55 1   
    58    33    56 1   
    59    34    57 1   
    60    36    58 1   
@<TRIPOS>SUBSTRUCTURE
     1 GDU         1 TEMP              0 ****  ****    0 ROOT
