@<TRIPOS>MOLECULE
GDU
   58    60     1     0     0
SMALL
abcg2


@<TRIPOS>ATOM
      1 N1           1.0590    -1.1000     2.1770 n          1 GDU      -0.304000
      2 C2           1.6270     0.1630     2.1580 c          1 GDU       0.615000
      3 N3           2.9760     0.1780     1.9070 ns         1 GDU      -0.474500
      4 C4           3.8250    -0.8960     1.6860 c          1 GDU       0.599200
      5 C5           3.1460    -2.1650     1.6940 cc         1 GDU      -0.417200
      6 C6           1.8230    -2.2040     1.9210 cd         1 GDU       0.050600
      7 O2           1.0050     1.1840     2.3500 o          1 GDU      -0.514000
      8 O4           5.0150    -0.7150     1.4990 o          1 GDU      -0.567000
      9 C1D         -0.3710    -1.2780     2.3930 c5         1 GDU       0.353700
     10 C2D         -0.9420    -0.6910     3.6850 c5         1 GDU       0.067300
     11 O2D         -0.7080    -1.5760     4.7450 oh         1 GDU      -0.726000
     12 C3D         -2.4180    -0.5420     3.2960 c5         1 GDU       0.103300
     13 C4D         -2.3150    -0.1430     1.8270 c5         1 GDU       0.159300
     14 O4D         -1.1000    -0.7190     1.3490 os         1 GDU      -0.407000
     15 O3D         -3.0850    -1.7770     3.3810 oh         1 GDU      -0.709000
     16 C5D         -2.3270     1.3580     1.6260 c3         1 GDU       0.227600
     17 O5D         -2.1280     1.6390     0.2580 os         1 GDU      -0.576400
     18 PA          -2.8050     3.0120    -0.3230 p5         1 GDU       1.467800
     19 O1A         -4.2890     2.8640    -0.4140 o          1 GDU      -0.849500
     20 O2A         -2.2080     4.2000     0.3660 o          1 GDU      -0.849500
     21 O3A         -2.1320     2.9850    -1.8250 os         1 GDU      -0.687800
     22 PB          -2.1790     1.8570    -2.9920 p5         1 GDU       1.497800
     23 O1B         -3.1180     0.7310    -2.6460 o          1 GDU      -0.844500
     24 O2B         -2.3090     2.5520    -4.3070 o          1 GDU      -0.844500
     25 O3B         -0.6350     1.3270    -2.7910 os         1 GDU      -0.625400
     26 C1          -0.0960     0.2730    -3.5530 c6         1 GDU       0.428300
     27 C7          -0.3090    -1.0810    -2.8620 c6         1 GDU       0.110300
     28 C3           0.4110    -1.0650    -1.5160 c6         1 GDU       0.104300
     29 C8           1.8880    -0.7470    -1.7230 c6         1 GDU       0.149300
     30 C9           2.0260     0.5410    -2.5240 c6         1 GDU       0.183300
     31 C10          3.4640     0.8330    -2.8970 c3         1 GDU       0.168600
     32 O7          -1.6510    -1.4650    -2.7420 oh         1 GDU      -0.799000
     33 O3           0.3360    -2.3210    -0.8780 oh         1 GDU      -0.716000
     34 O8           2.5610    -1.7890    -2.3890 oh         1 GDU      -0.733000
     35 O5           1.2640     0.5110    -3.7240 os         1 GDU      -0.453000
     36 O6           3.5370     2.1470    -3.4000 oh         1 GDU      -0.696000
     37 HN3          3.3950     1.1010     1.9050 hn         1 GDU       0.337500
     38 H5           3.6970    -3.0730     1.5080 ha         1 GDU       0.209000
     39 H6           1.2890    -3.1430     1.9240 h4         1 GDU       0.203000
     40 H1D         -0.5080    -2.3650     2.4280 h2         1 GDU       0.059700
     41 H2D         -0.5250     0.2970     3.8860 h1         1 GDU       0.088700
     42 HO2         -0.7470    -1.0850     5.5710 ho         1 GDU       0.503000
     43 H3D         -2.9200     0.2290     3.8950 h1         1 GDU       0.056700
     44 H4D         -3.1450    -0.5740     1.2570 h1         1 GDU       0.112700
     45 HO3         -2.8570    -2.1740     4.2300 ho         1 GDU       0.496000
     46 H5'1        -1.5550     1.8400     2.2330 h1         1 GDU       0.023200
     47 H5'2        -3.2990     1.7200     1.9820 h1         1 GDU       0.023200
     48 H1          -0.5280     0.2570    -4.5620 h2         1 GDU       0.067700
     49 H2           0.1750    -1.8290    -3.5020 h1         1 GDU       0.044700
     50 H3          -0.0310    -0.2870    -0.8830 h1         1 GDU       0.101700
     51 H4           2.3440    -0.5590    -0.7390 h1         1 GDU       0.017700
     52 H7           1.6770     1.3550    -1.8760 h1         1 GDU       0.091700
     53 H6'1         3.8180     0.1000    -3.6300 h1         1 GDU       0.016700
     54 H6'2         4.0790     0.7110    -1.9950 h1         1 GDU       0.016700
     55 HO2A        -2.2210    -0.6820    -2.5500 ho         1 GDU       0.593000
     56 HO3A        -0.5930    -2.5020    -0.7070 ho         1 GDU       0.468000
     57 HO4          2.3480    -2.6110    -1.9330 ho         1 GDU       0.504000
     58 HO6          4.4400     2.3040    -3.6910 ho         1 GDU       0.473000
@<TRIPOS>BOND
     1     1     2 1   
     2     1     6 1   
     3     1     9 1   
     4     2     3 1   
     5     2     7 2   
     6     3     4 1   
     7     3    37 1   
     8     4     5 1   
     9     4     8 2   
    10     5     6 2   
    11     5    38 1   
    12     6    39 1   
    13     9    10 1   
    14     9    14 1   
    15     9    40 1   
    16    10    11 1   
    17    10    12 1   
    18    10    41 1   
    19    11    42 1   
    20    12    13 1   
    21    12    15 1   
    22    12    43 1   
    23    13    14 1   
    24    13    16 1   
    25    13    44 1   
    26    15    45 1   
    27    16    17 1   
    28    16    46 1   
    29    16    47 1   
    30    17    18 1   
    31    18    19 1   
    32    18    20 1   
    33    18    21 1   
    34    21    22 1   
    35    22    23 1   
    36    22    24 1   
    37    22    25 1   
    38    25    26 1   
    39    26    27 1   
    40    26    35 1   
    41    26    48 1   
    42    27    28 1   
    43    27    32 1   
    44    27    49 1   
    45    28    29 1   
    46    28    33 1   
    47    28    50 1   
    48    29    30 1   
    49    29    34 1   
    50    29    51 1   
    51    30    31 1   
    52    30    35 1   
    53    30    52 1   
    54    31    36 1   
    55    31    53 1   
    56    31    54 1   
    57    32    55 1   
    58    33    56 1   
    59    34    57 1   
    60    36    58 1   
@<TRIPOS>SUBSTRUCTURE
     1 GDU         1 TEMP              0 ****  ****    0 ROOT
