@<TRIPOS>MOLECULE
GDV
   47    49     1     0     0
SMALL
No Charge or Current Charge


@<TRIPOS>ATOM
      1 O1           5.2860    -5.3380     0.3430 o          1 GDV      -0.563100
      2 C10          4.7890    -4.8520     1.3460 c          1 GDV       0.607100
      3 C12          5.1330    -5.3160     2.7500 c3         1 GDV      -0.179100
      4 N4           3.8990    -3.8090     1.2700 ns         1 GDV      -0.531900
      5 C2           3.3550    -3.2490     0.0180 c6         1 GDV       0.119000
      6 C3           4.3760    -2.2660    -0.6360 c6         1 GDV       0.120300
      7 O3           5.4690    -3.0030    -1.2210 oh         1 GDV      -0.614000
      8 C4           3.6940    -1.3850    -1.7290 c6         1 GDV       0.129300
      9 O4           4.6930    -0.5790    -2.3690 oh         1 GDV      -0.634000
     10 C5           2.5660    -0.4870    -1.1240 c6         1 GDV       0.036300
     11 C6           1.7990     0.3190    -2.2210 c3         1 GDV       0.147600
     12 O5           1.0190    -0.5210    -3.0950 oh         1 GDV      -0.643000
     13 C1           2.0530    -2.5290     0.2820 cc         1 GDV      -0.052600
     14 N1           1.6880    -1.3060    -0.2490 na         1 GDV       0.022300
     15 C7           0.4080    -0.9760     0.2080 cc         1 GDV      -0.077000
     16 C8          -0.0450    -2.0230     0.9950 cd         1 GDV      -0.208600
     17 N2           0.9760    -2.9640     1.0110 na         1 GDV      -0.053000
     18 C9          -1.3880    -2.0350     1.6470 c          1 GDV       0.645700
     19 O2          -2.1760    -1.1050     1.5220 o          1 GDV      -0.527100
     20 N3          -1.6370    -3.1830     2.3930 ns         1 GDV      -0.121000
     21 C11         -2.7630    -3.6050     3.1580 ca         1 GDV      -0.057000
     22 C17         -3.9560    -2.8560     3.2740 ca         1 GDV      -0.134000
     23 C16         -5.0260    -3.3400     4.0480 ca         1 GDV      -0.077500
     24 C15         -4.9180    -4.5730     4.7120 ca         1 GDV      -0.105000
     25 C14         -3.7370    -5.3240     4.6010 ca         1 GDV      -0.077500
     26 C13         -2.6680    -4.8410     3.8280 ca         1 GDV      -0.134000
     27 H121         5.8610    -6.1360     2.7540 hc         1 GDV       0.079700
     28 H122         5.4860    -4.4580     3.3330 hc         1 GDV       0.079700
     29 H123         4.2090    -5.5900     3.2710 hc         1 GDV       0.079700
     30 H4           3.5800    -3.4250     2.1530 hn         1 GDV       0.330500
     31 H2           3.1580    -4.0740    -0.6870 h1         1 GDV       0.130700
     32 H3           4.7510    -1.5960     0.1540 h1         1 GDV       0.105700
     33 HA           5.5420    -3.8530    -0.7160 ho         1 GDV       0.463000
     34 HB           3.2410    -2.0630    -2.4680 h1         1 GDV       0.047700
     35 HC           5.4880    -1.1610    -2.4280 ho         1 GDV       0.486000
     36 H5           3.0510     0.2540    -0.4730 h1         1 GDV       0.117700
     37 H6C1         2.5260     0.9100    -2.7980 h1         1 GDV       0.085700
     38 H6C2         1.1460     1.0450    -1.7180 h1         1 GDV       0.085700
     39 HD           1.6230    -0.8600    -3.7940 ho         1 GDV       0.461000
     40 H7          -0.0830    -0.0470    -0.0600 h4         1 GDV       0.224000
     41 HE           0.9440    -3.8610     1.4890 hn         1 GDV       0.407000
     42 HF          -0.8800    -3.8500     2.3980 hn         1 GDV       0.138000
     43 H17         -4.0800    -1.9010     2.7750 ha         1 GDV       0.125500
     44 H16         -5.9420    -2.7580     4.1330 ha         1 GDV       0.128500
     45 H15         -5.7470    -4.9450     5.3100 ha         1 GDV       0.132000
     46 H14         -3.6510    -6.2800     5.1140 ha         1 GDV       0.128500
     47 H13         -1.7590    -5.4340     3.7510 ha         1 GDV       0.125500
@<TRIPOS>BOND
     1     1     2 2   
     2     2     3 1   
     3     2     4 1   
     4     3    27 1   
     5     3    28 1   
     6     3    29 1   
     7     4     5 1   
     8     4    30 1   
     9     5     6 1   
    10     5    13 1   
    11     5    31 1   
    12     6     7 1   
    13     6     8 1   
    14     6    32 1   
    15     7    33 1   
    16     8     9 1   
    17     8    10 1   
    18     8    34 1   
    19     9    35 1   
    20    10    11 1   
    21    10    14 1   
    22    10    36 1   
    23    11    12 1   
    24    11    37 1   
    25    11    38 1   
    26    12    39 1   
    27    13    14 2   
    28    13    17 1   
    29    14    15 1   
    30    15    16 2   
    31    15    40 1   
    32    16    17 1   
    33    16    18 1   
    34    17    41 1   
    35    18    19 2   
    36    18    20 1   
    37    20    21 1   
    38    20    42 1   
    39    21    22 ar  
    40    21    26 ar  
    41    22    23 ar  
    42    22    43 1   
    43    23    24 ar  
    44    23    44 1   
    45    24    25 ar  
    46    24    45 1   
    47    25    26 ar  
    48    25    46 1   
    49    26    47 1   
@<TRIPOS>SUBSTRUCTURE
     1 GDV         1 TEMP              0 ****  ****    0 ROOT
