@<TRIPOS>MOLECULE
GDV
   47    49     1     0     0
SMALL
abcg2


@<TRIPOS>ATOM
      1 O1           4.2080    -5.7310     0.2680 o          1 GDV      -0.563100
      2 C10          4.2540    -5.0500     1.2750 c          1 GDV       0.607100
      3 C12          4.7690    -5.5730     2.5870 c3         1 GDV      -0.179100
      4 N4           3.8260    -3.7590     1.3010 ns         1 GDV      -0.531900
      5 C2           3.4290    -3.0590     0.1170 c6         1 GDV       0.119000
      6 C3           4.4020    -1.9520    -0.3070 c6         1 GDV       0.120300
      7 O3           5.6600    -2.4730    -0.6100 oh         1 GDV      -0.614000
      8 C4           3.7970    -1.1860    -1.4910 c6         1 GDV       0.129300
      9 O4           4.6560    -0.1850    -1.9520 oh         1 GDV      -0.634000
     10 C5           2.5040    -0.4570    -1.1130 c6         1 GDV       0.036300
     11 C6           1.7080     0.0090    -2.3320 c3         1 GDV       0.147600
     12 O5           1.1660    -1.0610    -3.0570 oh         1 GDV      -0.643000
     13 C1           2.0790    -2.4550     0.2910 cc         1 GDV      -0.052600
     14 N1           1.6700    -1.3260    -0.2730 na         1 GDV       0.022300
     15 C7           0.3750    -1.0880     0.0960 cc         1 GDV      -0.077000
     16 C8          -0.0050    -2.1030     0.9130 cd         1 GDV      -0.208600
     17 N2           1.0840    -2.9370     1.0150 na         1 GDV      -0.053000
     18 C9          -1.3420    -2.2360     1.5390 c          1 GDV       0.645700
     19 O2          -2.2160    -1.4660     1.1900 o          1 GDV      -0.527100
     20 N3          -1.4720    -3.2100     2.4600 ns         1 GDV      -0.121000
     21 C11         -2.6160    -3.5920     3.1790 ca         1 GDV      -0.057000
     22 C17         -3.8490    -2.9450     3.1000 ca         1 GDV      -0.134000
     23 C16         -4.9130    -3.4140     3.8610 ca         1 GDV      -0.077500
     24 C15         -4.7730    -4.5100     4.6980 ca         1 GDV      -0.105000
     25 C14         -3.5420    -5.1490     4.7730 ca         1 GDV      -0.077500
     26 C13         -2.4730    -4.6970     4.0210 ca         1 GDV      -0.134000
     27 H121         4.2180    -6.4730     2.8580 hc         1 GDV       0.079700
     28 H122         5.8160    -5.8550     2.4730 hc         1 GDV       0.079700
     29 H123         4.6900    -4.8580     3.4020 hc         1 GDV       0.079700
     30 H4           3.9850    -3.2120     2.1350 hn         1 GDV       0.330500
     31 H2           3.3500    -3.7960    -0.6910 h1         1 GDV       0.130700
     32 H3           4.5470    -1.2590     0.5300 h1         1 GDV       0.105700
     33 HA           5.5810    -3.1340    -1.3080 ho         1 GDV       0.463000
     34 HB           3.5800    -1.9240    -2.2810 h1         1 GDV       0.047700
     35 HC           5.4490    -0.5960    -2.3130 ho         1 GDV       0.486000
     36 H5           2.7650     0.4160    -0.5090 h1         1 GDV       0.117700
     37 H6C1         2.3640     0.6450    -2.9320 h1         1 GDV       0.085700
     38 H6C2         0.8820     0.6410    -2.0020 h1         1 GDV       0.085700
     39 HD           1.8120    -1.3720    -3.6970 ho         1 GDV       0.461000
     40 H7          -0.1760    -0.2230    -0.2280 h4         1 GDV       0.224000
     41 HE           1.1580    -3.8050     1.5290 hn         1 GDV       0.407000
     42 HF          -0.6550    -3.7490     2.6970 hn         1 GDV       0.138000
     43 H17         -3.9910    -2.0880     2.4630 ha         1 GDV       0.125500
     44 H16         -5.8650    -2.9040     3.7910 ha         1 GDV       0.128500
     45 H15         -5.6100    -4.8610     5.2870 ha         1 GDV       0.132000
     46 H14         -3.4110    -6.0080     5.4190 ha         1 GDV       0.128500
     47 H13         -1.5190    -5.2060     4.0850 ha         1 GDV       0.125500
@<TRIPOS>BOND
     1     1     2 2   
     2     2     3 1   
     3     2     4 1   
     4     3    27 1   
     5     3    28 1   
     6     3    29 1   
     7     4     5 1   
     8     4    30 1   
     9     5     6 1   
    10     5    13 1   
    11     5    31 1   
    12     6     7 1   
    13     6     8 1   
    14     6    32 1   
    15     7    33 1   
    16     8     9 1   
    17     8    10 1   
    18     8    34 1   
    19     9    35 1   
    20    10    11 1   
    21    10    14 1   
    22    10    36 1   
    23    11    12 1   
    24    11    37 1   
    25    11    38 1   
    26    12    39 1   
    27    13    14 2   
    28    13    17 1   
    29    14    15 1   
    30    15    16 2   
    31    15    40 1   
    32    16    17 1   
    33    16    18 1   
    34    17    41 1   
    35    18    19 2   
    36    18    20 1   
    37    20    21 1   
    38    20    42 1   
    39    21    22 ar  
    40    21    26 ar  
    41    22    23 ar  
    42    22    43 1   
    43    23    24 ar  
    44    23    44 1   
    45    24    25 ar  
    46    24    45 1   
    47    25    26 ar  
    48    25    46 1   
    49    26    47 1   
@<TRIPOS>SUBSTRUCTURE
     1 GDV         1 TEMP              0 ****  ****    0 ROOT
