@<TRIPOS>MOLECULE
GDW
   49    52     1     0     0
SMALL
No Charge or Current Charge


@<TRIPOS>ATOM
      1 C01          6.0210    -0.7840     1.0190 c3         1 GDW      -0.092600
      2 C02          4.6210    -1.1000     0.4520 c3         1 GDW       0.172800
      3 C04          4.5860     0.7140    -1.2450 c3         1 GDW       0.172800
      4 C05          3.9950     2.0640    -1.7040 c3         1 GDW      -0.092600
      5 C06          2.4530    -0.2490    -0.4060 c3         1 GDW       0.150800
      6 C07          1.5910    -0.6510     0.8120 c3         1 GDW       0.059600
      7 C09         -0.6020    -1.8950     0.2580 cc         1 GDW      -0.127300
      8 C10         -0.1510    -3.3350     0.3550 c6         1 GDW      -0.014100
      9 C11         -1.3750    -4.2590     0.5890 c6         1 GDW      -0.064400
     10 C12         -2.5290    -3.9480    -0.4040 c6         1 GDW      -0.179400
     11 C13         -2.9780    -2.4760    -0.3700 c          1 GDW       0.603700
     12 C15         -1.8940    -1.5030    -0.0630 cd         1 GDW      -0.170600
     13 C16         -1.9200    -0.0910    -0.0160 cd         1 GDW      -0.181600
     14 C17         -2.8470     1.0450    -0.2210 c          1 GDW       0.624300
     15 C19         -1.9680     2.2390     0.0280 ca         1 GDW      -0.174600
     16 C20         -2.2790     3.6050    -0.0260 ca         1 GDW      -0.043000
     17 C21         -1.2460     4.5280     0.2470 ca         1 GDW      -0.120000
     18 C22          0.0610     4.0810     0.5640 ca         1 GDW      -0.092000
     19 C23          0.3570     2.7020     0.6130 ca         1 GDW      -0.105000
     20 C24         -0.6790     1.7990     0.3410 ca         1 GDW       0.003000
     21 C25         -0.6920     0.3510     0.3090 cc         1 GDW      -0.115000
     22 N03          3.8800     0.0710    -0.0990 n3         1 GDW      -0.738600
     23 N08          0.1620    -0.7270     0.4810 na         1 GDW       0.069000
     24 O18         -4.0330     1.0370    -0.5250 o          1 GDW      -0.472100
     25 H012         6.4130    -1.6570     1.5530 hc         1 GDW       0.039033
     26 H011         6.7320    -0.5370     0.2230 hc         1 GDW       0.039033
     27 H013         5.9720     0.0540     1.7240 hc         1 GDW       0.039033
     28 H022         4.7220    -1.8780    -0.3170 h1         1 GDW       0.030950
     29 H021         4.0530    -1.5440     1.2790 h1         1 GDW       0.030950
     30 H041         4.6120     0.0300    -2.1050 h1         1 GDW       0.030950
     31 H042         5.6280     0.9210    -0.9720 h1         1 GDW       0.030950
     32 H051         4.6770     2.5480    -2.4130 hc         1 GDW       0.039033
     33 H053         3.0320     1.9330    -2.2110 hc         1 GDW       0.039033
     34 H052         3.8570     2.7370    -0.8500 hc         1 GDW       0.039033
     35 H061         2.3980    -1.0530    -1.1530 h1         1 GDW       0.047700
     36 H062         1.9610     0.6240    -0.8500 h1         1 GDW       0.047700
     37 H071         1.9170    -1.6210     1.2020 h1         1 GDW       0.071700
     38 H072         1.7190     0.0920     1.6070 h1         1 GDW       0.071700
     39 H101         0.3650    -3.6310    -0.5690 hc         1 GDW       0.053200
     40 H102         0.5690    -3.4760     1.1720 hc         1 GDW       0.053200
     41 H112        -1.0700    -5.3110     0.4970 hc         1 GDW       0.051200
     42 H111        -1.7380    -4.1290     1.6180 hc         1 GDW       0.051200
     43 H122        -2.1280    -4.1150    -1.4120 hc         1 GDW       0.069200
     44 H121        -3.3960    -4.6100    -0.2800 hc         1 GDW       0.069200
     45 H201        -3.2830     3.9440    -0.2710 ha         1 GDW       0.134000
     46 H211        -1.4560     5.5950     0.2130 ha         1 GDW       0.118000
     47 H221         0.8440     4.8070     0.7700 ha         1 GDW       0.114000
     48 H231         1.3590     2.3570     0.8550 ha         1 GDW       0.120000
     49 O14         -4.1440    -2.1550    -0.5610 o          1 GDW      -0.504100
@<TRIPOS>BOND
     1     1     2 1   
     2     1    25 1   
     3     1    26 1   
     4     1    27 1   
     5     2    22 1   
     6     2    28 1   
     7     2    29 1   
     8     3     4 1   
     9     3    22 1   
    10     3    30 1   
    11     3    31 1   
    12     4    32 1   
    13     4    33 1   
    14     4    34 1   
    15     5     6 1   
    16     5    22 1   
    17     5    35 1   
    18     5    36 1   
    19     6    23 1   
    20     6    37 1   
    21     6    38 1   
    22     7     8 1   
    23     7    12 2   
    24     7    23 1   
    25     8     9 1   
    26     8    39 1   
    27     8    40 1   
    28     9    10 1   
    29     9    41 1   
    30     9    42 1   
    31    10    11 1   
    32    10    43 1   
    33    10    44 1   
    34    11    12 1   
    35    11    49 2   
    36    12    13 1   
    37    13    14 1   
    38    13    21 2   
    39    14    15 1   
    40    14    24 2   
    41    15    16 ar  
    42    15    20 ar  
    43    16    17 ar  
    44    16    45 1   
    45    17    18 ar  
    46    17    46 1   
    47    18    19 ar  
    48    18    47 1   
    49    19    20 ar  
    50    19    48 1   
    51    20    21 1   
    52    21    23 1   
@<TRIPOS>SUBSTRUCTURE
     1 GDW         1 TEMP              0 ****  ****    0 ROOT
