@<TRIPOS>MOLECULE
GDW
   49    52     1     0     0
SMALL
bcc


@<TRIPOS>ATOM
      1 C01          5.7130    -1.1940     0.8780 c3         1 GDW      -0.092600
      2 C02          4.4730    -1.3520     0.0130 c3         1 GDW       0.172800
      3 C04          4.4350     0.7470    -1.1930 c3         1 GDW       0.172800
      4 C05          4.0770     2.2180    -1.0580 c3         1 GDW      -0.092600
      5 C06          2.3710    -0.2930    -0.5010 c3         1 GDW       0.150800
      6 C07          1.5700    -0.4860     0.7840 c3         1 GDW       0.030300
      7 C09         -0.5310    -1.8010     0.3420 cc         1 GDW      -0.076600
      8 C10          0.0340    -3.1660     0.4940 c6         1 GDW      -0.014100
      9 C11         -1.1120    -4.1420     0.7560 c6         1 GDW      -0.064400
     10 C12         -2.2570    -3.9680    -0.2390 c6         1 GDW      -0.179400
     11 C13         -2.8140    -2.5610    -0.2720 c          1 GDW       0.603700
     12 C15         -1.8450    -1.5150     0.0070 cd         1 GDW      -0.170600
     13 C16         -1.9470    -0.0980    -0.0350 cd         1 GDW      -0.181600
     14 C17         -2.8410     1.0360    -0.2840 c          1 GDW       0.624300
     15 C19         -1.9660     2.2540    -0.0940 ca         1 GDW      -0.174600
     16 C20         -2.2990     3.5790    -0.2150 ca         1 GDW      -0.061000
     17 C21         -1.3010     4.5380     0.0060 ca         1 GDW      -0.138000
     18 C22         -0.0170     4.1480     0.3380 ca         1 GDW      -0.110000
     19 C23          0.3240     2.7940     0.4620 ca         1 GDW      -0.123000
     20 C24         -0.6600     1.8550     0.2440 ca         1 GDW       0.003000
     21 C25         -0.7030     0.3940     0.2680 cc         1 GDW      -0.064300
     22 N03          3.7730    -0.0920    -0.2030 n3         1 GDW      -0.738600
     23 N08          0.1530    -0.6270     0.5040 na         1 GDW      -0.003100
     24 O18         -4.0120     1.0570    -0.5790 o          1 GDW      -0.472100
     25 H012         6.1810    -2.1640     1.0460 hc         1 GDW       0.039033
     26 H011         6.4620    -0.5490     0.4180 hc         1 GDW       0.039033
     27 H013         5.4520    -0.7690     1.8480 hc         1 GDW       0.039033
     28 H022         4.7370    -1.8320    -0.9430 h1         1 GDW       0.030950
     29 H021         3.7950    -2.0430     0.5180 h1         1 GDW       0.030950
     30 H041         4.2260     0.4010    -2.2190 h1         1 GDW       0.030950
     31 H042         5.5130     0.6440    -1.0580 h1         1 GDW       0.030950
     32 H051         4.6380     2.8100    -1.7820 hc         1 GDW       0.039033
     33 H053         3.0190     2.4100    -1.2420 hc         1 GDW       0.039033
     34 H052         4.3170     2.5840    -0.0590 hc         1 GDW       0.039033
     35 H061         2.2010    -1.1420    -1.1830 h1         1 GDW       0.047700
     36 H062         1.9790     0.5880    -1.0140 h1         1 GDW       0.047700
     37 H071         1.8990    -1.3660     1.3350 h1         1 GDW       0.071700
     38 H072         1.7120     0.3660     1.4470 h1         1 GDW       0.071700
     39 H101         0.5670    -3.4530    -0.4190 hc         1 GDW       0.053200
     40 H102         0.7590    -3.2120     1.3080 hc         1 GDW       0.053200
     41 H112        -0.7370    -5.1650     0.7070 hc         1 GDW       0.051200
     42 H111        -1.4860    -3.9900     1.7720 hc         1 GDW       0.051200
     43 H122        -1.9000    -4.1930    -1.2520 hc         1 GDW       0.069200
     44 H121        -3.0660    -4.6680    -0.0300 hc         1 GDW       0.069200
     45 H201        -3.3050     3.8800    -0.4790 ha         1 GDW       0.152000
     46 H211        -1.5370     5.5900    -0.0830 ha         1 GDW       0.136000
     47 H221         0.7440     4.8980     0.5060 ha         1 GDW       0.132000
     48 H231         1.3350     2.5150     0.7270 ha         1 GDW       0.138000
     49 O14         -3.9730    -2.3210    -0.5540 o          1 GDW      -0.504100
@<TRIPOS>BOND
     1     1     2 1   
     2     1    25 1   
     3     1    26 1   
     4     1    27 1   
     5     2    22 1   
     6     2    28 1   
     7     2    29 1   
     8     3     4 1   
     9     3    22 1   
    10     3    30 1   
    11     3    31 1   
    12     4    32 1   
    13     4    33 1   
    14     4    34 1   
    15     5     6 1   
    16     5    22 1   
    17     5    35 1   
    18     5    36 1   
    19     6    23 1   
    20     6    37 1   
    21     6    38 1   
    22     7     8 1   
    23     7    12 2   
    24     7    23 1   
    25     8     9 1   
    26     8    39 1   
    27     8    40 1   
    28     9    10 1   
    29     9    41 1   
    30     9    42 1   
    31    10    11 1   
    32    10    43 1   
    33    10    44 1   
    34    11    12 1   
    35    11    49 2   
    36    12    13 1   
    37    13    14 1   
    38    13    21 2   
    39    14    15 1   
    40    14    24 2   
    41    15    16 ar  
    42    15    20 ar  
    43    16    17 ar  
    44    16    45 1   
    45    17    18 ar  
    46    17    46 1   
    47    18    19 ar  
    48    18    47 1   
    49    19    20 ar  
    50    19    48 1   
    51    20    21 1   
    52    21    23 1   
@<TRIPOS>SUBSTRUCTURE
     1 GDW         1 TEMP              0 ****  ****    0 ROOT
