@<TRIPOS>MOLECULE
GDX
   60    63     1     0     0
SMALL
bcc


@<TRIPOS>ATOM
      1 N2         119.1230   139.5950   179.0160 nv         1 GDX      -0.957800
      2 C2         119.4810   139.7270   180.3020 cc         1 GDX       0.690800
      3 N1         118.6550   139.1740   181.2380 ns         1 GDX      -0.528400
      4 N3         120.5980   140.3390   180.6090 nd         1 GDX      -0.668100
      5 C4         120.8510   140.3500   181.9250 cd         1 GDX       0.095800
      6 C5         120.0940   139.8110   182.9470 cc         1 GDX       0.164800
      7 C6         118.8690   139.1600   182.6240 c          1 GDX       0.663000
      8 O6         118.0560   138.6430   183.3710 o          1 GDX      -0.631500
      9 N7         120.6960   140.0260   184.1610 nc         1 GDX      -0.620000
     10 C8         121.7810   140.6800   183.8830 cd         1 GDX       0.469400
     11 N9         121.9300   140.9130   182.5350 na         1 GDX      -0.186900
     12 C1D        123.0030   141.6110   181.8790 c5         1 GDX       0.265800
     13 C2D        123.2390   143.0230   182.4090 c5         1 GDX       0.104100
     14 O2D        122.2840   143.8870   181.8760 oh         1 GDX      -0.589800
     15 C3D        124.6900   143.2510   181.9870 c5         1 GDX       0.082100
     16 O3D        124.6860   143.6470   180.6380 oh         1 GDX      -0.609800
     17 C4D        125.2950   141.8500   182.1810 c5         1 GDX       0.104100
     18 O4D        124.2070   140.9260   182.0730 os         1 GDX      -0.395600
     19 C5D        126.0290   141.6450   183.4890 c3         1 GDX       0.197400
     20 O5D        125.1800   141.9620   184.5650 os         1 GDX      -0.609200
     21 PA         125.2010   141.1720   186.0070 p5         1 GDX       1.467800
     22 O1A        125.8200   139.8200   185.8430 o          1 GDX      -0.849500
     23 O2A        123.8230   141.3490   186.5660 o          1 GDX      -0.849500
     24 O3A        126.1680   142.1580   186.8950 os         1 GDX      -0.714800
     25 PB         127.7950   142.1110   187.1430 p5         1 GDX       1.490800
     26 O2B        128.1020   143.3230   187.9590 o          1 GDX      -0.858000
     27 O3B        128.5180   141.8100   185.8680 o          1 GDX      -0.858000
     28 O1B        127.8940   140.8210   188.1670 os         1 GDX      -0.611200
     29 C1         128.4400   139.5910   187.7810 c6         1 GDX       0.402900
     30 O5         129.8030   139.5290   188.0710 os         1 GDX      -0.387600
     31 C10        130.1310   139.5990   189.4520 c6         1 GDX      -0.004900
     32 C11        131.6740   139.5380   189.5690 c          1 GDX       0.938600
     33 O6A        132.2160   138.5320   189.0750 o          1 GDX      -0.852300
     34 O6B        132.2270   140.4880   190.1540 o          1 GDX      -0.852300
     35 C7         127.6540   138.4910   188.4910 c6         1 GDX       0.121100
     36 O2         128.0220   137.2700   187.8910 oh         1 GDX      -0.591800
     37 C3         127.9650   138.4930   189.9830 c6         1 GDX       0.098100
     38 O3         127.3010   137.3880   190.5570 oh         1 GDX      -0.639800
     39 C9         129.4700   138.4390   190.1950 c6         1 GDX       0.092100
     40 O4         129.7050   138.5120   191.5870 oh         1 GDX      -0.638800
     41 HN21       119.6430   140.1170   178.3310 hn         1 GDX       0.428800
     42 HN22       118.1910   139.3170   178.7570 hn         1 GDX       0.428800
     43 HN1        117.8060   138.7190   180.9250 hn         1 GDX       0.296500
     44 H8         122.5080   141.0130   184.6120 h5         1 GDX       0.141100
     45 H1         122.7300   141.6560   180.8190 h2         1 GDX       0.080700
     46 H2         123.2070   143.0100   183.5040 h1         1 GDX       0.112700
     47 HO2A       122.2970   144.7080   182.3760 ho         1 GDX       0.403000
     48 H3         125.1930   143.9930   182.6200 h1         1 GDX       0.079700
     49 HO3A       125.5980   143.7330   180.3450 ho         1 GDX       0.391000
     50 H4         126.0150   141.6490   181.3790 h1         1 GDX       0.037700
     51 H5'2       126.3840   140.6130   183.5470 h1         1 GDX       0.062200
     52 H5'1       126.9130   142.2900   183.4890 h1         1 GDX       0.062200
     53 HC1        128.3620   139.4480   186.7020 h2         1 GDX       0.109700
     54 HC5        129.7760   140.5430   189.8850 h1         1 GDX       0.061700
     55 HC2        126.5850   138.6900   188.3380 h1         1 GDX       0.072700
     56 HO2        127.6660   136.5600   188.4360 ho         1 GDX       0.379000
     57 HC3        127.5910   139.4340   190.4130 h1         1 GDX       0.070700
     58 HO3        127.6480   137.2630   191.4470 ho         1 GDX       0.390000
     59 HC4        129.8540   137.4980   189.7820 h1         1 GDX       0.050700
     60 HO4        130.5690   138.1340   191.7760 ho         1 GDX       0.398000
@<TRIPOS>BOND
     1     1     2 1   
     2     1    41 1   
     3     1    42 1   
     4     2     3 1   
     5     2     4 2   
     6     3     7 1   
     7     3    43 1   
     8     4     5 1   
     9     5     6 2   
    10     5    11 1   
    11     6     7 1   
    12     6     9 1   
    13     7     8 2   
    14     9    10 2   
    15    10    11 1   
    16    10    44 1   
    17    11    12 1   
    18    12    13 1   
    19    12    18 1   
    20    12    45 1   
    21    13    14 1   
    22    13    15 1   
    23    13    46 1   
    24    14    47 1   
    25    15    16 1   
    26    15    17 1   
    27    15    48 1   
    28    16    49 1   
    29    17    18 1   
    30    17    19 1   
    31    17    50 1   
    32    19    20 1   
    33    19    51 1   
    34    19    52 1   
    35    20    21 1   
    36    21    22 1   
    37    21    23 1   
    38    21    24 1   
    39    24    25 1   
    40    25    26 1   
    41    25    27 1   
    42    25    28 1   
    43    28    29 1   
    44    29    30 1   
    45    29    35 1   
    46    29    53 1   
    47    30    31 1   
    48    31    32 1   
    49    31    39 1   
    50    31    54 1   
    51    32    33 1   
    52    32    34 1   
    53    35    36 1   
    54    35    37 1   
    55    35    55 1   
    56    36    56 1   
    57    37    38 1   
    58    37    39 1   
    59    37    57 1   
    60    38    58 1   
    61    39    40 1   
    62    39    59 1   
    63    40    60 1   
@<TRIPOS>SUBSTRUCTURE
     1 GDX         1 TEMP              0 ****  ****    0 ROOT
