@<TRIPOS>MOLECULE
GDX
   60    63     1     0     0
SMALL
No Charge or Current Charge


@<TRIPOS>ATOM
      1 N2         118.4680   140.6010   179.8380 nv         1 GDX      -1.068200
      2 C2         119.1700   140.1380   180.8560 cc         1 GDX       0.690800
      3 N1         118.6010   139.1240   181.5480 ns         1 GDX      -0.461400
      4 N3         120.3330   140.7080   181.0840 nd         1 GDX      -0.668100
      5 C4         120.9960   140.1570   182.1830 cd         1 GDX       0.110400
      6 C5         120.5020   139.1290   182.9400 cc         1 GDX       0.099500
      7 C6         119.1820   138.5270   182.6230 c          1 GDX       0.520500
      8 O6         118.6410   137.6060   183.2230 o          1 GDX      -0.556000
      9 N7         121.3840   138.7960   183.9420 nc         1 GDX      -0.620000
     10 C8         122.4210   139.6290   183.7900 cd         1 GDX       0.469400
     11 N9         122.2180   140.4920   182.7170 na         1 GDX      -0.165500
     12 C1D        123.1250   141.5350   182.2510 c5         1 GDX       0.318300
     13 C2D        123.1970   142.8420   183.0990 c5         1 GDX       0.127300
     14 O2D        122.0670   143.7190   182.9570 oh         1 GDX      -0.712000
     15 C3D        124.4500   143.4820   182.4350 c5         1 GDX       0.105300
     16 O3D        124.0770   144.1120   181.1890 oh         1 GDX      -0.732000
     17 C4D        125.3640   142.2140   182.2280 c5         1 GDX       0.127300
     18 O4D        124.4830   141.0590   182.2840 os         1 GDX      -0.442000
     19 C5D        126.5290   142.0750   183.2550 c3         1 GDX       0.220600
     20 O5D        126.0220   142.2220   184.5960 os         1 GDX      -0.632400
     21 PA         125.8100   140.9550   185.5690 p5         1 GDX       1.467800
     22 O1A        125.8440   139.6440   184.8630 o          1 GDX      -0.849500
     23 O2A        124.5030   141.1170   186.2700 o          1 GDX      -0.849500
     24 O3A        126.9830   141.1200   186.6100 os         1 GDX      -0.714800
     25 PB         128.4400   141.3100   186.0510 p5         1 GDX       1.490800
     26 O2B        128.7650   142.7420   185.7920 o          1 GDX      -0.858000
     27 O3B        128.8120   140.4260   184.9120 o          1 GDX      -0.858000
     28 O1B        129.2210   140.8340   187.3690 os         1 GDX      -0.634400
     29 C1         129.5290   139.4400   187.5100 c6         1 GDX       0.449300
     30 O5         130.3820   139.2980   188.6730 os         1 GDX      -0.434000
     31 C10        129.7520   139.6380   189.9540 c6         1 GDX       0.018300
     32 C11        130.7490   139.5700   191.1650 c          1 GDX       0.728000
     33 O6A        131.7620   138.8970   191.0180 o          1 GDX      -0.747000
     34 O6B        130.7980   140.5700   191.8700 o          1 GDX      -0.747000
     35 C7         128.2830   138.4780   187.6380 c6         1 GDX       0.144300
     36 O2         128.6510   137.0770   187.6300 oh         1 GDX      -0.714000
     37 C3         127.5440   138.7770   188.9750 c6         1 GDX       0.121300
     38 O3         126.4640   137.8410   189.1760 oh         1 GDX      -0.702000
     39 C9         128.5180   138.7140   190.1960 c6         1 GDX       0.115300
     40 O4         127.7980   139.0660   191.3990 oh         1 GDX      -0.761000
     41 HN21       118.8170   141.4770   179.4680 hn         1 GDX       0.484000
     42 HN22       117.4600   140.5240   179.8970 hn         1 GDX       0.484000
     43 HN1        117.7090   138.7630   181.2510 hn         1 GDX       0.296500
     44 H8         123.3190   139.6610   184.3940 h5         1 GDX       0.141100
     45 H1         122.8390   141.7640   181.2160 h2         1 GDX       0.080700
     46 H2         123.3850   142.6020   184.1550 h1         1 GDX       0.112700
     47 HO2A       122.2970   144.2410   182.1480 ho         1 GDX       0.502000
     48 H3         124.9230   144.2110   183.1110 h1         1 GDX       0.079700
     49 HO3A       124.8880   144.5320   180.8140 ho         1 GDX       0.490000
     50 H4         125.8170   142.2370   181.2280 h1         1 GDX       0.037700
     51 H5'2       127.0210   141.1060   183.1000 h1         1 GDX       0.062200
     52 H5'1       127.2720   142.8560   183.0480 h1         1 GDX       0.062200
     53 HC1        130.1030   139.1150   186.6270 h2         1 GDX       0.109700
     54 HC5        129.4030   140.6790   189.9010 h1         1 GDX       0.061700
     55 HC2        127.5930   138.6690   186.8060 h1         1 GDX       0.072700
     56 HO2        127.9050   136.6420   188.1090 ho         1 GDX       0.478000
     57 HC3        127.1440   139.8010   188.9180 h1         1 GDX       0.070700
     58 HO3        126.2170   137.9540   190.1230 ho         1 GDX       0.429000
     59 HC4        128.8920   137.6830   190.2850 h1         1 GDX       0.050700
     60 HO4        128.3730   138.8460   192.1690 ho         1 GDX       0.497000
@<TRIPOS>BOND
     1     1     2 1   
     2     1    41 1   
     3     1    42 1   
     4     2     3 1   
     5     2     4 2   
     6     3     7 1   
     7     3    43 1   
     8     4     5 1   
     9     5     6 2   
    10     5    11 1   
    11     6     7 1   
    12     6     9 1   
    13     7     8 2   
    14     9    10 2   
    15    10    11 1   
    16    10    44 1   
    17    11    12 1   
    18    12    13 1   
    19    12    18 1   
    20    12    45 1   
    21    13    14 1   
    22    13    15 1   
    23    13    46 1   
    24    14    47 1   
    25    15    16 1   
    26    15    17 1   
    27    15    48 1   
    28    16    49 1   
    29    17    18 1   
    30    17    19 1   
    31    17    50 1   
    32    19    20 1   
    33    19    51 1   
    34    19    52 1   
    35    20    21 1   
    36    21    22 1   
    37    21    23 1   
    38    21    24 1   
    39    24    25 1   
    40    25    26 1   
    41    25    27 1   
    42    25    28 1   
    43    28    29 1   
    44    29    30 1   
    45    29    35 1   
    46    29    53 1   
    47    30    31 1   
    48    31    32 1   
    49    31    39 1   
    50    31    54 1   
    51    32    33 1   
    52    32    34 1   
    53    35    36 1   
    54    35    37 1   
    55    35    55 1   
    56    36    56 1   
    57    37    38 1   
    58    37    39 1   
    59    37    57 1   
    60    38    58 1   
    61    39    40 1   
    62    39    59 1   
    63    40    60 1   
@<TRIPOS>SUBSTRUCTURE
     1 GDX         1 TEMP              0 ****  ****    0 ROOT
