@<TRIPOS>MOLECULE
GDY
   35    37     1     0     0
SMALL
No Charge or Current Charge


@<TRIPOS>ATOM
      1 C10         -0.2390     1.0440    -1.1760 ca         1 GDY      -0.186000
      2 C13         -0.7310    -1.4510     0.0050 ca         1 GDY      -0.032000
      3 C15         -3.1990    -1.2140    -0.3400 ce         1 GDY      -0.009200
      4 C17         -5.6830    -1.2210     0.1750 c          1 GDY       0.586200
      5 C20         -6.2060     1.0080     0.8400 c          1 GDY       0.596600
      6 C01          7.8420    -0.7950    -0.3200 cc         1 GDY      -0.132000
      7 C02          6.7340    -0.2930    -1.0460 cc         1 GDY      -0.124000
      8 C03          5.7980     0.3250    -0.2590 cd         1 GDY      -0.218300
      9 C05          7.7660    -0.5660     1.0290 cd         1 GDY      -0.234000
     10 C06          4.5050     0.9700    -0.6950 c3         1 GDY      -0.007100
     11 C09          0.8370     0.2810    -0.6980 ca         1 GDY       0.179100
     12 C11         -1.5570     0.5690    -1.0630 ca         1 GDY      -0.032000
     13 C12         -1.8120    -0.6790    -0.4600 ca         1 GDY      -0.134800
     14 C14          0.5880    -0.9750    -0.1080 ca         1 GDY      -0.186000
     15 C16         -4.3620    -0.5750     0.0390 cd         1 GDY      -0.140600
     16 N19         -6.5650    -0.2810     0.5990 ns         1 GDY      -0.480500
     17 O08          2.1070     0.8010    -0.8370 os         1 GDY      -0.343100
     18 O21         -6.9530     1.8920     1.2250 o          1 GDY      -0.468000
     19 S04          6.2800     0.3050     1.4510 ss         1 GDY       0.190000
     20 S22         -4.4300     1.1370     0.4850 ss         1 GDY      -0.189200
     21 H1          -0.0500     2.0080    -1.6400 ha         1 GDY       0.129000
     22 H2          -0.9130    -2.4220     0.4620 ha         1 GDY       0.121000
     23 H3          -3.2950    -2.2840    -0.5330 ha         1 GDY       0.198000
     24 H6           6.6520    -0.3980    -2.1240 ha         1 GDY       0.135000
     25 H7           8.4740    -0.8440     1.8000 h4         1 GDY       0.152000
     26 H8           4.3880     1.9420    -0.2000 hc         1 GDY       0.068700
     27 H9           4.5310     1.1710    -1.7740 hc         1 GDY       0.068700
     28 H12         -2.3740     1.1670    -1.4580 ha         1 GDY       0.121000
     29 H13          1.3970    -1.5940     0.2670 ha         1 GDY       0.129000
     30 H14         -7.5260    -0.5500     0.7450 hn         1 GDY       0.350500
     31 O18         -5.9650    -2.3870    -0.0440 o          1 GDY      -0.497000
     32 C07          3.2760     0.0980    -0.3810 c3         1 GDY       0.162600
     33 H5           8.6660    -1.3120    -0.8040 ha         1 GDY       0.136000
     34 H10          3.3740    -0.8680    -0.8940 h1         1 GDY       0.043700
     35 H11          3.2220    -0.0830     0.7010 h1         1 GDY       0.043700
@<TRIPOS>BOND
     1     1    11 ar  
     2     1    12 ar  
     3     1    21 1   
     4     2    13 ar  
     5     2    14 ar  
     6     2    22 1   
     7     3    13 1   
     8     3    15 2   
     9     3    23 1   
    10     4    15 1   
    11     4    16 1   
    12     4    31 2   
    13     5    16 1   
    14     5    18 2   
    15     5    20 1   
    16     6     7 1   
    17     6     9 2   
    18     6    33 1   
    19     7     8 2   
    20     7    24 1   
    21     8    10 1   
    22     8    19 1   
    23     9    19 1   
    24     9    25 1   
    25    10    26 1   
    26    10    27 1   
    27    10    32 1   
    28    11    14 ar  
    29    11    17 1   
    30    12    13 ar  
    31    12    28 1   
    32    14    29 1   
    33    15    20 1   
    34    16    30 1   
    35    17    32 1   
    36    32    34 1   
    37    32    35 1   
@<TRIPOS>SUBSTRUCTURE
     1 GDY         1 TEMP              0 ****  ****    0 ROOT
