@<TRIPOS>MOLECULE
GDY
   35    37     1     0     0
SMALL
bcc


@<TRIPOS>ATOM
      1 C10         -0.1810     1.2900    -0.6350 ca         1 GDY      -0.204000
      2 C13         -0.6320    -1.3150     0.1580 ca         1 GDY      -0.050000
      3 C15         -3.0470    -1.0550     0.1140 ce         1 GDY       0.040800
      4 C17         -5.4790    -1.3250     0.2960 c          1 GDY       0.728700
      5 C20         -6.4500     0.7830    -0.1270 c          1 GDY       0.739100
      6 C01          7.6760    -0.9930    -0.6850 cc         1 GDY      -0.150000
      7 C02          6.5770    -0.3010    -1.2670 cc         1 GDY      -0.142000
      8 C03          5.7540     0.2720    -0.3440 cd         1 GDY      -0.073400
      9 C05          7.6680    -0.9370     0.6740 cd         1 GDY      -0.107100
     10 C06          4.4930     1.0380    -0.5800 c3         1 GDY      -0.007100
     11 C09          0.9060     0.4440    -0.3840 ca         1 GDY       0.179100
     12 C11         -1.4710     0.8340    -0.4840 ca         1 GDY      -0.050000
     13 C12         -1.7340    -0.4850    -0.0780 ca         1 GDY      -0.134800
     14 C14          0.6700    -0.8710     0.0150 ca         1 GDY      -0.204000
     15 C16         -4.2730    -0.5090     0.0430 cd         1 GDY      -0.140600
     16 N19         -6.6030    -0.5390     0.1810 ns         1 GDY      -0.614500
     17 O08          2.1210     0.9780    -0.5520 os         1 GDY      -0.319900
     18 O21         -7.3230     1.5950    -0.2590 o          1 GDY      -0.543500
     19 S04          6.3260    -0.0410     1.2530 ss         1 GDY      -0.099800
     20 S22         -4.7230     1.1510    -0.3100 ss         1 GDY      -0.189200
     21 H1           0.0010     2.3090    -0.9510 ha         1 GDY       0.147000
     22 H2          -0.7990    -2.3400     0.4650 ha         1 GDY       0.139000
     23 H3          -3.0460    -2.1110     0.3670 ha         1 GDY       0.148000
     24 H6           6.4020    -0.2300    -2.3320 ha         1 GDY       0.153000
     25 H7           8.3790    -1.3650     1.3640 h4         1 GDY       0.170000
     26 H8           4.4580     1.9290     0.0530 hc         1 GDY       0.068700
     27 H9           4.4810     1.3780    -1.6170 hc         1 GDY       0.068700
     28 H12         -2.2690     1.5300    -0.7000 ha         1 GDY       0.139000
     29 H13          1.4800    -1.5580     0.2140 ha         1 GDY       0.147000
     30 H14         -7.5290    -0.9230     0.3240 hn         1 GDY       0.350500
     31 O18         -5.5060    -2.5030     0.5650 o          1 GDY      -0.572500
     32 C07          3.2690     0.1770    -0.3110 c3         1 GDY       0.139400
     33 H5           8.4390    -1.5040    -1.2550 ha         1 GDY       0.154000
     34 H10          3.2710    -0.6970    -0.9700 h1         1 GDY       0.043700
     35 H11          3.2720    -0.1810     0.7230 h1         1 GDY       0.043700
@<TRIPOS>BOND
     1     1    11 ar  
     2     1    12 ar  
     3     1    21 1   
     4     2    13 ar  
     5     2    14 ar  
     6     2    22 1   
     7     3    13 1   
     8     3    15 2   
     9     3    23 1   
    10     4    15 1   
    11     4    16 1   
    12     4    31 2   
    13     5    16 1   
    14     5    18 2   
    15     5    20 1   
    16     6     7 1   
    17     6     9 2   
    18     6    33 1   
    19     7     8 2   
    20     7    24 1   
    21     8    10 1   
    22     8    19 1   
    23     9    19 1   
    24     9    25 1   
    25    10    26 1   
    26    10    27 1   
    27    10    32 1   
    28    11    14 ar  
    29    11    17 1   
    30    12    13 ar  
    31    12    28 1   
    32    14    29 1   
    33    15    20 1   
    34    16    30 1   
    35    17    32 1   
    36    32    34 1   
    37    32    35 1   
@<TRIPOS>SUBSTRUCTURE
     1 GDY         1 TEMP              0 ****  ****    0 ROOT
