@<TRIPOS>MOLECULE
GDZ
   50    54     1     0     0
SMALL
No Charge or Current Charge


@<TRIPOS>ATOM
      1 C24          5.6110     1.3230    -0.7790 c6         1 GDZ       0.194800
      2 C23          6.9900     1.6090    -0.1010 c6         1 GDZ       0.158800
      3 N28          7.7780     0.3630     0.1530 n3         1 GDZ      -0.714600
      4 C29          9.1020     0.6370     0.7520 c3         1 GDZ       0.151100
      5 C27          6.9640    -0.5950     0.9640 c6         1 GDZ       0.158800
      6 C26          5.5790    -0.9210     0.3140 c6         1 GDZ       0.194800
      7 N25          4.7970     0.3150    -0.0190 nh         1 GDZ      -0.781400
      8 C13          3.4080     0.3360    -0.0170 cc         1 GDZ       0.233000
      9 C14          2.6610    -0.8110    -0.1650 cd         1 GDZ      -0.154000
     10 C12          2.7090     1.5700     0.1550 cc         1 GDZ      -0.053000
     11 C17          1.3350     1.5940     0.1600 cd         1 GDZ      -0.132000
     12 C16          0.5980     0.3690    -0.0070 cd         1 GDZ       0.088000
     13 N18         -0.7260     0.5060     0.0130 nc         1 GDZ      -0.399600
     14 N15          1.2560    -0.8600    -0.1700 n          1 GDZ       0.036200
     15 C21          0.5320    -2.0500    -0.3290 c          1 GDZ       0.520000
     16 O22          1.0430    -3.1540    -0.4760 o          1 GDZ      -0.541000
     17 C20         -0.9160    -1.8610    -0.3040 cd         1 GDZ      -0.406200
     18 C19         -1.5150    -0.6250    -0.1380 cc         1 GDZ       0.293400
     19 C1          -2.9700    -0.4790    -0.1190 cc         1 GDZ      -0.079800
     20 C7          -3.4770     0.8200     0.0550 cd         1 GDZ      -0.063000
     21 C2          -3.8750    -1.6170    -0.2710 cc         1 GDZ      -0.140000
     22 C3          -5.2410    -1.4520    -0.2490 cd         1 GDZ       0.205000
     23 F4          -6.1040    -2.4760    -0.3850 f          1 GDZ      -0.145000
     24 C5          -5.7210    -0.1250    -0.0710 cd         1 GDZ      -0.109000
     25 N11         -6.9690     0.3120    -0.0130 nc         1 GDZ      -0.264600
     26 N6          -4.8680     0.9260     0.0690 na         1 GDZ       0.133100
     27 C8          -5.5530     2.1010     0.2260 cd         1 GDZ      -0.271100
     28 C9          -6.8650     1.6760     0.1700 cc         1 GDZ       0.071400
     29 C10         -8.1000     2.5250     0.2830 c3         1 GDZ      -0.018900
     30 H24B         5.0750     2.2750    -0.8940 h1         1 GDZ       0.047700
     31 H24A         5.7960     0.9460    -1.7960 h1         1 GDZ       0.047700
     32 H23A         7.5600     2.2940    -0.7470 h1         1 GDZ       0.042700
     33 H23B         6.8080     2.1400     0.8450 h1         1 GDZ       0.042700
     34 H29A         8.9970     1.1140     1.7360 h1         1 GDZ       0.034033
     35 H29C         9.6690    -0.2940     0.8800 h1         1 GDZ       0.034033
     36 H29B         9.6880     1.3050     0.1070 h1         1 GDZ       0.034033
     37 H27A         7.5140    -1.5370     1.1030 h1         1 GDZ       0.042700
     38 H27B         6.7850    -0.1790     1.9670 h1         1 GDZ       0.042700
     39 H26A         5.7470    -1.5100    -0.6000 h1         1 GDZ       0.047700
     40 H26B         5.0170    -1.5580     1.0120 h1         1 GDZ       0.047700
     41 H14          3.1070    -1.7850    -0.3080 h4         1 GDZ       0.176000
     42 H12          3.2680     2.4870     0.3010 ha         1 GDZ       0.133000
     43 H17          0.8130     2.5360     0.2930 ha         1 GDZ       0.149000
     44 H20         -1.4560    -2.7850    -0.4270 ha         1 GDZ       0.218000
     45 H7          -2.9070     1.7330     0.1770 h4         1 GDZ       0.169000
     46 H2          -3.5010    -2.6210    -0.4050 ha         1 GDZ       0.146000
     47 H8          -5.0990     3.0760     0.3570 h4         1 GDZ       0.234000
     48 H10C        -8.7120     2.2110     1.1360 hc         1 GDZ       0.049367
     49 H10B        -7.8400     3.5810     0.4250 hc         1 GDZ       0.049367
     50 H10A        -8.7120     2.4460    -0.6230 hc         1 GDZ       0.049367
@<TRIPOS>BOND
     1     1     2 1   
     2     1     7 1   
     3     1    30 1   
     4     1    31 1   
     5     2     3 1   
     6     2    32 1   
     7     2    33 1   
     8     3     4 1   
     9     3     5 1   
    10     4    34 1   
    11     4    35 1   
    12     4    36 1   
    13     5     6 1   
    14     5    37 1   
    15     5    38 1   
    16     6     7 1   
    17     6    39 1   
    18     6    40 1   
    19     7     8 1   
    20     8     9 2   
    21     8    10 1   
    22     9    14 1   
    23     9    41 1   
    24    10    11 2   
    25    10    42 1   
    26    11    12 1   
    27    11    43 1   
    28    12    13 2   
    29    12    14 1   
    30    13    18 1   
    31    14    15 1   
    32    15    16 2   
    33    15    17 1   
    34    17    18 2   
    35    17    44 1   
    36    18    19 1   
    37    19    20 2   
    38    19    21 1   
    39    20    26 1   
    40    20    45 1   
    41    21    22 2   
    42    21    46 1   
    43    22    23 1   
    44    22    24 1   
    45    24    25 2   
    46    24    26 1   
    47    25    28 1   
    48    26    27 1   
    49    27    28 2   
    50    27    47 1   
    51    28    29 1   
    52    29    48 1   
    53    29    49 1   
    54    29    50 1   
@<TRIPOS>SUBSTRUCTURE
     1 GDZ         1 TEMP              0 ****  ****    0 ROOT
