@<TRIPOS>MOLECULE
GDZ
   50    54     1     0     0
SMALL
abcg2


@<TRIPOS>ATOM
      1 C24          5.5590     1.2870    -0.6810 c6         1 GDZ       0.194800
      2 C23          6.9600     1.4980    -0.1470 c6         1 GDZ       0.158800
      3 N28          7.6170     0.2270     0.0790 n3         1 GDZ      -0.714600
      4 C29          8.9800     0.4020     0.5260 c3         1 GDZ       0.151100
      5 C27          6.8480    -0.5700     1.0100 c6         1 GDZ       0.158800
      6 C26          5.4410    -0.8120     0.4960 c6         1 GDZ       0.194800
      7 N25          4.7860     0.4550     0.2340 nh         1 GDZ      -0.781400
      8 C13          3.4100     0.4550     0.0860 cc         1 GDZ       0.233000
      9 C14          2.6680    -0.6880     0.0160 cd         1 GDZ      -0.154000
     10 C12          2.7030     1.6950     0.0590 cc         1 GDZ      -0.053000
     11 C17          1.3530     1.7160    -0.0230 cd         1 GDZ      -0.132000
     12 C16          0.5940     0.5170    -0.0680 cd         1 GDZ       0.088000
     13 N18         -0.7190     0.5780    -0.1270 nc         1 GDZ      -0.399600
     14 N15          1.2950    -0.6590    -0.0390 n          1 GDZ       0.036200
     15 C21          0.6100    -1.9170    -0.0760 c          1 GDZ       0.520000
     16 O22          1.2610    -2.9500    -0.0440 o          1 GDZ      -0.541000
     17 C20         -0.7970    -1.7990    -0.1390 cd         1 GDZ      -0.406200
     18 C19         -1.4090    -0.5660    -0.1630 cc         1 GDZ       0.293400
     19 C1          -2.8760    -0.4300    -0.2090 cc         1 GDZ      -0.079800
     20 C7          -3.4370     0.7700     0.1170 cd         1 GDZ      -0.063000
     21 C2          -3.7190    -1.5200    -0.5760 cc         1 GDZ      -0.140000
     22 C3          -5.0610    -1.3490    -0.5910 cd         1 GDZ       0.205000
     23 F4          -5.8880    -2.3340    -0.9420 f          1 GDZ      -0.145000
     24 C5          -5.6510    -0.1160    -0.2430 cd         1 GDZ      -0.109000
     25 N11         -6.9060     0.2650    -0.1870 nc         1 GDZ      -0.264600
     26 N6          -4.7880     0.9070     0.1000 na         1 GDZ       0.133100
     27 C8          -5.5780     1.9900     0.3880 cd         1 GDZ      -0.271100
     28 C9          -6.8700     1.5690     0.2030 cc         1 GDZ       0.071400
     29 C10         -8.1120     2.3660     0.3800 c3         1 GDZ      -0.018900
     30 H24B         5.0810     2.2570    -0.8070 h1         1 GDZ       0.047700
     31 H24A         5.6110     0.8170    -1.6730 h1         1 GDZ       0.047700
     32 H23A         7.5290     2.0720    -0.8820 h1         1 GDZ       0.042700
     33 H23B         6.9120     2.1050     0.7740 h1         1 GDZ       0.042700
     34 H29A         9.0550     0.9420     1.4840 h1         1 GDZ       0.034033
     35 H29C         9.4590    -0.5700     0.6540 h1         1 GDZ       0.034033
     36 H29B         9.5490     0.9620    -0.2180 h1         1 GDZ       0.034033
     37 H27A         7.3390    -1.5350     1.1510 h1         1 GDZ       0.042700
     38 H27B         6.7840    -0.0910     2.0030 h1         1 GDZ       0.042700
     39 H26A         5.4750    -1.4430    -0.4050 h1         1 GDZ       0.047700
     40 H26B         4.8850    -1.3560     1.2600 h1         1 GDZ       0.047700
     41 H14          3.0940    -1.6780     0.0090 h4         1 GDZ       0.176000
     42 H12          3.2450     2.6280     0.1330 ha         1 GDZ       0.133000
     43 H17          0.8030     2.6460    -0.0320 ha         1 GDZ       0.149000
     44 H20         -1.3600    -2.7200    -0.1460 ha         1 GDZ       0.218000
     45 H7          -2.8600     1.6370     0.4000 h4         1 GDZ       0.169000
     46 H2          -3.3050    -2.4750    -0.8680 ha         1 GDZ       0.146000
     47 H8          -5.1630     2.9360     0.6930 h4         1 GDZ       0.234000
     48 H10C        -8.7700     1.9070     1.1190 hc         1 GDZ       0.049367
     49 H10B        -7.8870     3.3790     0.7080 hc         1 GDZ       0.049367
     50 H10A        -8.6700     2.4290    -0.5550 hc         1 GDZ       0.049367
@<TRIPOS>BOND
     1     1     2 1   
     2     1     7 1   
     3     1    30 1   
     4     1    31 1   
     5     2     3 1   
     6     2    32 1   
     7     2    33 1   
     8     3     4 1   
     9     3     5 1   
    10     4    34 1   
    11     4    35 1   
    12     4    36 1   
    13     5     6 1   
    14     5    37 1   
    15     5    38 1   
    16     6     7 1   
    17     6    39 1   
    18     6    40 1   
    19     7     8 1   
    20     8     9 2   
    21     8    10 1   
    22     9    14 1   
    23     9    41 1   
    24    10    11 2   
    25    10    42 1   
    26    11    12 1   
    27    11    43 1   
    28    12    13 2   
    29    12    14 1   
    30    13    18 1   
    31    14    15 1   
    32    15    16 2   
    33    15    17 1   
    34    17    18 2   
    35    17    44 1   
    36    18    19 1   
    37    19    20 2   
    38    19    21 1   
    39    20    26 1   
    40    20    45 1   
    41    21    22 2   
    42    21    46 1   
    43    22    23 1   
    44    22    24 1   
    45    24    25 2   
    46    24    26 1   
    47    25    28 1   
    48    26    27 1   
    49    27    28 2   
    50    27    47 1   
    51    28    29 1   
    52    29    48 1   
    53    29    49 1   
    54    29    50 1   
@<TRIPOS>SUBSTRUCTURE
     1 GDZ         1 TEMP              0 ****  ****    0 ROOT
