@<TRIPOS>MOLECULE
GE1
   24    24     1     0     0
SMALL
abcg2


@<TRIPOS>ATOM
      1 C5           9.4730     1.8260    -2.7500 c6         1 GE1       0.125300
      2 O            8.1620     1.7980    -3.3060 os         1 GE1      -0.459000
      3 C1           7.1840     2.5050    -2.6140 c6         1 GE1       0.402300
      4 O1           7.4290     3.8780    -2.6930 oh         1 GE1      -0.688000
      5 C2           7.0820     2.0730    -1.1410 c6         1 GE1       0.085500
      6 N2           6.1930     3.0130    -0.4730 n8         1 GE1      -1.025200
      7 C3           8.4570     2.0960    -0.4860 c6         1 GE1      -0.077400
      8 C4           9.4570     1.3080    -1.3220 c6         1 GE1      -0.101400
      9 C6          10.3600     0.9910    -3.6630 c3         1 GE1       0.152800
     10 N1          10.4920     1.4560    -5.0320 n8         1 GE1      -0.988200
     11 H5           9.8520     2.8580    -2.7470 h1         1 GE1       0.049700
     12 H1           6.2450     2.2530    -3.1310 h2         1 GE1       0.066700
     13 HO1          7.0510     4.2460    -1.8760 ho         1 GE1       0.482000
     14 H2           6.7100     1.0400    -1.1270 h1         1 GE1       0.041700
     15 HN21         5.2280     2.8260    -0.7200 hn         1 GE1       0.409000
     16 HN22         6.2560     2.9040     0.5310 hn         1 GE1       0.409000
     17 H31          8.7950     3.1310    -0.3800 hc         1 GE1       0.050700
     18 H32          8.3870     1.6830     0.5230 hc         1 GE1       0.050700
     19 H41         10.4600     1.3920    -0.8960 hc         1 GE1       0.051700
     20 H42          9.1970     0.2450    -1.3190 hc         1 GE1       0.051700
     21 H61          9.9860    -0.0380    -3.6750 h1         1 GE1       0.055700
     22 H62         11.3560     0.9490    -3.2130 h1         1 GE1       0.055700
     23 HN11        10.8810     2.3910    -5.0350 hn         1 GE1       0.399500
     24 HN12         9.5750     1.5380    -5.4520 hn         1 GE1       0.399500
@<TRIPOS>BOND
     1     1     2 1   
     2     1     8 1   
     3     1     9 1   
     4     1    11 1   
     5     2     3 1   
     6     3     4 1   
     7     3     5 1   
     8     3    12 1   
     9     4    13 1   
    10     5     6 1   
    11     5     7 1   
    12     5    14 1   
    13     6    15 1   
    14     6    16 1   
    15     7     8 1   
    16     7    17 1   
    17     7    18 1   
    18     8    19 1   
    19     8    20 1   
    20     9    10 1   
    21     9    21 1   
    22     9    22 1   
    23    10    23 1   
    24    10    24 1   
@<TRIPOS>SUBSTRUCTURE
     1 GE1         1 TEMP              0 ****  ****    0 ROOT
