@<TRIPOS>MOLECULE
GE1
   24    24     1     0     0
SMALL
No Charge or Current Charge


@<TRIPOS>ATOM
      1 C5           9.5020     1.8110    -2.7610 c6         1 GE1       0.125300
      2 O            8.1850     1.7340    -3.3580 os         1 GE1      -0.459000
      3 C1           7.1440     2.4730    -2.6830 c6         1 GE1       0.402300
      4 O1           7.4080     3.8640    -2.7610 oh         1 GE1      -0.688000
      5 C2           7.0350     2.1150    -1.1560 c6         1 GE1       0.085500
      6 N2           6.2100     3.1340    -0.4340 n8         1 GE1      -1.025200
      7 C3           8.4330     2.0550    -0.4770 c6         1 GE1      -0.077400
      8 C4           9.4430     1.2430    -1.3210 c6         1 GE1      -0.101400
      9 C6          10.4920     1.0120    -3.6700 c3         1 GE1       0.152800
     10 N1          10.5210     1.4670    -5.0840 n8         1 GE1      -0.988200
     11 H5           9.8300     2.8600    -2.7320 h1         1 GE1       0.049700
     12 H1           6.1780     2.2600    -3.1670 h2         1 GE1       0.066700
     13 HO1          7.0350     4.1360    -1.8850 ho         1 GE1       0.482000
     14 H2           6.5460     1.1350    -1.0500 h1         1 GE1       0.041700
     15 HN21         5.2120     2.9480    -0.6110 hn         1 GE1       0.409000
     16 HN22         6.2910     2.9700     0.5780 hn         1 GE1       0.409000
     17 H31          8.8280     3.0710    -0.3340 hc         1 GE1       0.050700
     18 H32          8.3470     1.6130     0.5260 hc         1 GE1       0.050700
     19 H41         10.4380     1.2860    -0.8560 hc         1 GE1       0.051700
     20 H42          9.1480     0.1850    -1.3440 hc         1 GE1       0.051700
     21 H61         10.2050    -0.0500    -3.6500 h1         1 GE1       0.055700
     22 H62         11.5040     1.0930    -3.2490 h1         1 GE1       0.055700
     23 HN11        10.7850     2.4590    -5.1040 hn         1 GE1       0.399500
     24 HN12         9.5480     1.4850    -5.4150 hn         1 GE1       0.399500
@<TRIPOS>BOND
     1     1     2 1   
     2     1     8 1   
     3     1     9 1   
     4     1    11 1   
     5     2     3 1   
     6     3     4 1   
     7     3     5 1   
     8     3    12 1   
     9     4    13 1   
    10     5     6 1   
    11     5     7 1   
    12     5    14 1   
    13     6    15 1   
    14     6    16 1   
    15     7     8 1   
    16     7    17 1   
    17     7    18 1   
    18     8    19 1   
    19     8    20 1   
    20     9    10 1   
    21     9    21 1   
    22     9    22 1   
    23    10    23 1   
    24    10    24 1   
@<TRIPOS>SUBSTRUCTURE
     1 GE1         1 TEMP              0 ****  ****    0 ROOT
