@<TRIPOS>MOLECULE
GE2
   23    23     1     0     0
SMALL
bcc


@<TRIPOS>ATOM
      1 C5          -0.7240     0.3290    -1.2760 c6         1 GE2       0.164000
      2 C           -1.4720    -0.1300    -0.0300 c6         1 GE2      -0.074400
      3 C1          -0.7830     0.3340     1.2480 c6         1 GE2       0.164000
      4 N1          -1.5020    -0.1720     2.4090 n8         1 GE2      -0.880800
      5 C2           0.6580    -0.1640     1.2770 c6         1 GE2      -0.113900
      6 C3           1.4310     0.2960     0.0470 c6         1 GE2       0.156100
      7 O32          2.7490    -0.2210     0.0250 oh         1 GE2      -0.595800
      8 C4           0.7300    -0.1490    -1.2260 c6         1 GE2      -0.113900
      9 N6          -1.4440    -0.0920    -2.4690 n8         1 GE2      -0.880800
     10 H5          -0.7220     1.4250    -1.2820 h1         1 GE2       0.033200
     11 H1A         -1.5330    -1.2260    -0.0220 hc         1 GE2       0.056700
     12 H2          -2.4980     0.2470    -0.0630 hc         1 GE2       0.056700
     13 H1          -0.7580     1.4370     1.2270 h1         1 GE2       0.033200
     14 HN11        -1.0790     0.1970     3.2520 hn         1 GE2       0.338800
     15 HN12        -2.4470     0.1930     2.4010 hn         1 GE2       0.338800
     16 H21          1.1560     0.1970     2.1850 hc         1 GE2       0.052950
     17 H22          0.6590    -1.2580     1.3220 hc         1 GE2       0.052950
     18 H3           1.4600     1.3980     0.0530 h1         1 GE2       0.024700
     19 HOW          3.2060     0.0950     0.8110 ho         1 GE2       0.403000
     20 H41          0.7470    -1.2450    -1.2840 hc         1 GE2       0.052950
     21 H42          1.2700     0.2280    -2.1000 hc         1 GE2       0.052950
     22 HN61        -0.9720     0.2690    -3.2900 hn         1 GE2       0.338800
     23 HN62        -1.3940    -1.1020    -2.5500 hn         1 GE2       0.338800
@<TRIPOS>BOND
     1     1     2 1   
     2     1     8 1   
     3     1     9 1   
     4     1    10 1   
     5     2     3 1   
     6     2    11 1   
     7     2    12 1   
     8     3     4 1   
     9     3     5 1   
    10     3    13 1   
    11     4    14 1   
    12     4    15 1   
    13     5     6 1   
    14     5    16 1   
    15     5    17 1   
    16     6     7 1   
    17     6     8 1   
    18     6    18 1   
    19     7    19 1   
    20     8    20 1   
    21     8    21 1   
    22     9    22 1   
    23     9    23 1   
@<TRIPOS>SUBSTRUCTURE
     1 GE2         1 TEMP              0 ****  ****    0 ROOT
