@<TRIPOS>MOLECULE
GE2
   23    23     1     0     0
SMALL
No Charge or Current Charge


@<TRIPOS>ATOM
      1 C5          -0.7460     0.3490    -1.2870 c6         1 GE2       0.164000
      2 C           -1.5160    -0.1340    -0.0320 c6         1 GE2      -0.074400
      3 C1          -0.7930     0.3130     1.2640 c6         1 GE2       0.164000
      4 N1          -1.5130    -0.1730     2.4560 n8         1 GE2      -0.991200
      5 C2           0.6730    -0.1870     1.2840 c6         1 GE2      -0.113900
      6 C3           1.4400     0.2970     0.0270 c6         1 GE2       0.179300
      7 O32          2.7730    -0.2200     0.0410 oh         1 GE2      -0.658000
      8 C4           0.7190    -0.1530    -1.2680 c6         1 GE2      -0.113900
      9 N6          -1.4240    -0.0960    -2.5190 n8         1 GE2      -0.991200
     10 H5          -0.7430     1.4500    -1.2980 h1         1 GE2       0.033200
     11 H1A         -1.6090    -1.2290    -0.0480 hc         1 GE2       0.056700
     12 H2          -2.5380     0.2700    -0.0480 hc         1 GE2       0.056700
     13 H1          -0.7930     1.4140     1.3080 h1         1 GE2       0.033200
     14 HN11        -1.0580     0.2060     3.2940 hn         1 GE2       0.394000
     15 HN12        -2.4460     0.2560     2.4770 hn         1 GE2       0.394000
     16 H21          1.1780     0.1780     2.1890 hc         1 GE2       0.052950
     17 H22          0.6920    -1.2850     1.3300 hc         1 GE2       0.052950
     18 H3           1.4720     1.3960     0.0410 h1         1 GE2       0.024700
     19 HOW          3.2090     0.1470     0.8410 ho         1 GE2       0.442000
     20 H41          0.7440    -1.2490    -1.3430 hc         1 GE2       0.052950
     21 H42          1.2600     0.2370    -2.1410 hc         1 GE2       0.052950
     22 HN61        -0.8760     0.2170    -3.3290 hn         1 GE2       0.394000
     23 HN62        -1.3680    -1.1190    -2.5740 hn         1 GE2       0.394000
@<TRIPOS>BOND
     1     1     2 1   
     2     1     8 1   
     3     1     9 1   
     4     1    10 1   
     5     2     3 1   
     6     2    11 1   
     7     2    12 1   
     8     3     4 1   
     9     3     5 1   
    10     3    13 1   
    11     4    14 1   
    12     4    15 1   
    13     5     6 1   
    14     5    16 1   
    15     5    17 1   
    16     6     7 1   
    17     6     8 1   
    18     6    18 1   
    19     7    19 1   
    20     8    20 1   
    21     8    21 1   
    22     9    22 1   
    23     9    23 1   
@<TRIPOS>SUBSTRUCTURE
     1 GE2         1 TEMP              0 ****  ****    0 ROOT
