@<TRIPOS>MOLECULE
GE3
   27    27     1     0     0
SMALL
No Charge or Current Charge


@<TRIPOS>ATOM
      1 C           -1.2120    -0.5520    -1.3760 c6         1 GE3       0.135600
      2 C1          -1.2560    -0.1550     0.1300 c6         1 GE3       0.122000
      3 O11         -1.8350     1.1600     0.2650 oh         1 GE3      -0.713000
      4 C2           0.2260    -0.1560     0.6940 c6         1 GE3       0.207500
      5 C3           1.1540     0.7500    -0.1980 c6         1 GE3       0.168300
      6 C4           1.0030     0.3730    -1.7420 c6         1 GE3       0.340300
      7 O4           1.5290    -0.9180    -2.1260 oh         1 GE3      -0.664000
      8 O3          -0.3860     0.3770    -2.1180 os         1 GE3      -0.468000
      9 OH           2.5450     0.7010     0.2320 oh         1 GE3      -0.688000
     10 N1           0.2660     0.3050     2.1180 n7         1 GE3      -0.870400
     11 C31          0.2990    -0.7160     3.1840 c3         1 GE3       0.160100
     12 C41         -2.1900    -1.1390     0.8900 c3         1 GE3      -0.125100
     13 H1          -2.2270    -0.5290    -1.7970 h1         1 GE3       0.052700
     14 H2A         -0.8330    -1.5780    -1.4940 h1         1 GE3       0.052700
     15 HOB         -1.7190     1.6000    -0.6100 ho         1 GE3       0.503000
     16 H2           0.6230    -1.1820     0.6320 h1         1 GE3       0.072700
     17 H3           0.7910     1.7840    -0.0950 h1         1 GE3       0.063700
     18 H4           1.5180     1.1490    -2.3290 h2         1 GE3       0.058700
     19 HO4          1.2810    -1.0230    -3.0690 ho         1 GE3       0.448000
     20 HOH          3.0460     1.3290    -0.3360 ho         1 GE3       0.497000
     21 HN1         -0.5530     0.9140     2.2400 hn         1 GE3       0.428000
     22 H311         0.3410    -0.2370     4.1720 h1         1 GE3       0.027367
     23 H312        -0.5890    -1.3600     3.1580 h1         1 GE3       0.027367
     24 H313         1.1850    -1.3560     3.0800 h1         1 GE3       0.027367
     25 H411        -3.1660    -1.2220     0.3950 hc         1 GE3       0.046033
     26 H412        -1.7580    -2.1460     0.9350 hc         1 GE3       0.046033
     27 H413        -2.3840    -0.8080     1.9170 hc         1 GE3       0.046033
@<TRIPOS>BOND
     1     1     2 1   
     2     1     8 1   
     3     1    13 1   
     4     1    14 1   
     5     2     3 1   
     6     2     4 1   
     7     2    12 1   
     8     3    15 1   
     9     4     5 1   
    10     4    10 1   
    11     4    16 1   
    12     5     6 1   
    13     5     9 1   
    14     5    17 1   
    15     6     7 1   
    16     6     8 1   
    17     6    18 1   
    18     7    19 1   
    19     9    20 1   
    20    10    11 1   
    21    10    21 1   
    22    11    22 1   
    23    11    23 1   
    24    11    24 1   
    25    12    25 1   
    26    12    26 1   
    27    12    27 1   
@<TRIPOS>SUBSTRUCTURE
     1 GE3         1 TEMP              0 ****  ****    0 ROOT
