@<TRIPOS>MOLECULE
GE3
   27    27     1     0     0
SMALL
bcc


@<TRIPOS>ATOM
      1 C           -1.1970    -0.4400    -1.4210 c6         1 GE3       0.112400
      2 C1          -1.2590    -0.0740     0.0610 c6         1 GE3       0.098800
      3 O11         -1.7140     1.2610     0.2160 oh         1 GE3      -0.590800
      4 C2           0.1590    -0.1110     0.6620 c6         1 GE3       0.207500
      5 C3           1.1160     0.7070    -0.2080 c6         1 GE3       0.145100
      6 C4           1.0360     0.2810    -1.6780 c6         1 GE3       0.293900
      7 O4           1.5640    -1.0010    -1.7960 oh         1 GE3      -0.601800
      8 O3          -0.2860     0.3620    -2.1420 os         1 GE3      -0.421600
      9 OH           2.4160     0.5450     0.3010 oh         1 GE3      -0.565800
     10 N1           0.2070     0.3480     2.0400 n7         1 GE3      -0.815200
     11 C31          0.4500    -0.6800     3.0270 c3         1 GE3       0.160100
     12 C41         -2.1930    -1.0460     0.7730 c3         1 GE3      -0.125100
     13 H1          -2.1780    -0.2800    -1.8780 h1         1 GE3       0.052700
     14 H2A         -0.9640    -1.5050    -1.5300 h1         1 GE3       0.052700
     15 HOB         -2.6420     1.3030    -0.0380 ho         1 GE3       0.404000
     16 H2           0.4890    -1.1560     0.6290 h1         1 GE3       0.072700
     17 H3           0.8080     1.7600    -0.1650 h1         1 GE3       0.063700
     18 H4           1.5910     0.9930    -2.3040 h2         1 GE3       0.058700
     19 HO4          1.6520    -1.2170    -2.7310 ho         1 GE3       0.409000
     20 HOH          2.9910     1.1890    -0.1220 ho         1 GE3       0.398000
     21 HN1         -0.6310     0.8650     2.2670 hn         1 GE3       0.372800
     22 H311         0.4420    -0.2360     4.0230 h1         1 GE3       0.027367
     23 H312        -0.2750    -1.5060     3.0290 h1         1 GE3       0.027367
     24 H313         1.4390    -1.1160     2.8770 h1         1 GE3       0.027367
     25 H411        -3.1900    -1.0240     0.3240 hc         1 GE3       0.046033
     26 H412        -1.8290    -2.0710     0.7110 hc         1 GE3       0.046033
     27 H413        -2.3030    -0.7880     1.8270 hc         1 GE3       0.046033
@<TRIPOS>BOND
     1     1     2 1   
     2     1     8 1   
     3     1    13 1   
     4     1    14 1   
     5     2     3 1   
     6     2     4 1   
     7     2    12 1   
     8     3    15 1   
     9     4     5 1   
    10     4    10 1   
    11     4    16 1   
    12     5     6 1   
    13     5     9 1   
    14     5    17 1   
    15     6     7 1   
    16     6     8 1   
    17     6    18 1   
    18     7    19 1   
    19     9    20 1   
    20    10    11 1   
    21    10    21 1   
    22    11    22 1   
    23    11    23 1   
    24    11    24 1   
    25    12    25 1   
    26    12    26 1   
    27    12    27 1   
@<TRIPOS>SUBSTRUCTURE
     1 GE3         1 TEMP              0 ****  ****    0 ROOT
