@<TRIPOS>MOLECULE
GE7
   51    53     1     0     0
SMALL
No Charge or Current Charge


@<TRIPOS>ATOM
      1 C13          0.5780   -32.6600   -37.4240 ca         1 GE7      -0.086000
      2 C18          0.3750   -32.8830   -31.6900 c3         1 GE7       0.047600
      3 C17          0.4020   -32.7800   -33.2310 ca         1 GE7      -0.045300
      4 C16          0.9800   -33.8100   -34.0210 ca         1 GE7       0.417300
      5 C19         -0.6280   -34.0020   -31.2250 c          1 GE7       0.730000
      6 C11         -0.5710   -30.5250   -37.4620 ca         1 GE7      -0.136000
      7 C12          0.0420   -31.5820   -38.1460 ca         1 GE7      -0.128000
      8 C27          1.6070   -35.0720   -33.4380 c3         1 GE7      -0.143400
      9 C2          -1.9790   -28.3930   -31.6890 ca         1 GE7      -0.091300
     10 C3          -0.7310   -28.2180   -32.3140 ca         1 GE7      -0.122500
     11 C4          -0.1460   -29.2730   -33.0340 ca         1 GE7      -0.089500
     12 C5          -0.7910   -30.5270   -33.1430 cp         1 GE7      -0.027000
     13 C6          -2.0520   -30.6840   -32.5220 ca         1 GE7      -0.089500
     14 C7          -2.6390   -29.6310   -31.8010 ca         1 GE7      -0.122500
     15 C8          -0.1620   -31.6520   -33.9020 cp         1 GE7      -0.026000
     16 C9          -0.0970   -31.6230   -35.3230 ca         1 GE7      -0.066000
     17 C10         -0.6430   -30.5440   -36.0600 ca         1 GE7      -0.086000
     18 C14          0.5150   -32.6980   -36.0170 ca         1 GE7       0.268000
     19 N15          1.0350   -33.7600   -35.3720 nb         1 GE7      -0.710000
     20 O20         -0.2770   -34.8110   -30.3730 o          1 GE7      -0.705000
     21 O21         -1.7310   -34.0450   -31.7550 o          1 GE7      -0.705000
     22 O22          1.7230   -33.0790   -31.1430 os         1 GE7      -0.428000
     23 H1           1.0480   -33.4800   -37.9600 ha         1 GE7       0.116000
     24 H2          -0.0530   -31.9710   -31.2670 h1         1 GE7       0.037700
     25 H3           3.5820   -32.9770   -29.3030 hc         1 GE7       0.033144
     26 H4           4.3110   -33.3880   -30.8700 hc         1 GE7       0.033144
     27 H5           4.6470   -31.8150   -30.1190 hc         1 GE7       0.033144
     28 H6          -0.9920   -29.6890   -38.0160 ha         1 GE7       0.096000
     29 H7           0.0990   -31.5700   -39.2320 ha         1 GE7       0.096000
     30 H8           1.9080   -35.7790   -34.2200 hc         1 GE7       0.056700
     31 H9           2.5060   -34.8360   -32.8600 hc         1 GE7       0.056700
     32 H10          0.9070   -35.6040   -32.7860 hc         1 GE7       0.056700
     33 H11         -3.2370   -26.6320   -31.5660 hc         1 GE7       0.032033
     34 H12         -3.2510   -27.6260   -30.0990 hc         1 GE7       0.032033
     35 H13         -1.8540   -26.6040   -30.4590 hc         1 GE7       0.032033
     36 H14         -0.2140   -27.2640   -32.2430 ha         1 GE7       0.102000
     37 H15          0.8170   -29.1200   -33.5160 ha         1 GE7       0.137000
     38 H16         -2.5760   -31.6330   -32.6040 ha         1 GE7       0.137000
     39 H17         -3.6090   -29.7770   -31.3310 ha         1 GE7       0.102000
     40 H18         -1.1320   -29.7130   -35.5590 ha         1 GE7       0.114000
     41 H20          3.9410   -30.7770   -32.3140 hc         1 GE7       0.033144
     42 H21          3.3690   -32.2790   -33.0610 hc         1 GE7       0.033144
     43 H22          2.2810   -30.8810   -32.8880 hc         1 GE7       0.033144
     44 H23          1.5650   -31.2710   -29.2310 hc         1 GE7       0.033144
     45 H24          2.7730   -30.1220   -29.8360 hc         1 GE7       0.033144
     46 H25          1.2390   -30.3020   -30.6870 hc         1 GE7       0.033144
     47 C23          2.6500   -31.9660   -31.0090 c3         1 GE7       0.187000
     48 C25          3.0800   -31.4490   -32.4050 c3         1 GE7      -0.101100
     49 C26          2.0130   -30.8510   -30.1390 c3         1 GE7      -0.101100
     50 C1          -2.6150   -27.2520   -30.9100 c3         1 GE7      -0.038800
     51 C24          3.8710   -32.5740   -30.2810 c3         1 GE7      -0.101100
@<TRIPOS>BOND
     1     1     7 ar  
     2     1    18 ar  
     3     1    23 1   
     4     2     3 1   
     5     2     5 1   
     6     2    22 1   
     7     2    24 1   
     8     3     4 ar  
     9     3    15 ar  
    10     4     8 1   
    11     4    19 ar  
    12     5    20 1   
    13     5    21 1   
    14     6     7 ar  
    15     6    17 ar  
    16     6    28 1   
    17     7    29 1   
    18     8    30 1   
    19     8    31 1   
    20     8    32 1   
    21     9    10 ar  
    22     9    14 ar  
    23     9    50 1   
    24    10    11 ar  
    25    10    36 1   
    26    11    12 ar  
    27    11    37 1   
    28    12    13 ar  
    29    12    15 1   
    30    13    14 ar  
    31    13    38 1   
    32    14    39 1   
    33    15    16 ar  
    34    16    17 ar  
    35    16    18 ar  
    36    17    40 1   
    37    18    19 ar  
    38    22    47 1   
    39    25    51 1   
    40    26    51 1   
    41    27    51 1   
    42    33    50 1   
    43    34    50 1   
    44    35    50 1   
    45    41    48 1   
    46    42    48 1   
    47    43    48 1   
    48    44    49 1   
    49    45    49 1   
    50    46    49 1   
    51    47    48 1   
    52    47    49 1   
    53    47    51 1   
@<TRIPOS>SUBSTRUCTURE
     1 GE7         1 TEMP              0 ****  ****    0 ROOT
