@<TRIPOS>MOLECULE
GE7
   51    53     1     0     0
SMALL
abcg2


@<TRIPOS>ATOM
      1 C13          0.5350   -32.6520   -37.4300 ca         1 GE7      -0.086000
      2 C18          0.4480   -32.8390   -31.7570 c3         1 GE7       0.047600
      3 C17          0.4140   -32.7400   -33.2640 ca         1 GE7      -0.045300
      4 C16          0.9950   -33.7740   -34.0650 ca         1 GE7       0.417300
      5 C19         -0.5550   -33.9180   -31.2360 c          1 GE7       0.730000
      6 C11         -0.6650   -30.5670   -37.4500 ca         1 GE7      -0.136000
      7 C12         -0.0250   -31.6200   -38.1320 ca         1 GE7      -0.128000
      8 C27          1.6190   -34.9990   -33.4580 c3         1 GE7      -0.143400
      9 C2          -1.9550   -28.3860   -31.7710 ca         1 GE7      -0.091300
     10 C3          -0.7520   -28.2240   -32.4550 ca         1 GE7      -0.122500
     11 C4          -0.1730   -29.2790   -33.1450 ca         1 GE7      -0.089500
     12 C5          -0.7720   -30.5370   -33.1590 cp         1 GE7      -0.027000
     13 C6          -1.9710   -30.7050   -32.4720 ca         1 GE7      -0.089500
     14 C7          -2.5520   -29.6440   -31.7920 ca         1 GE7      -0.122500
     15 C8          -0.1490   -31.6600   -33.9050 cp         1 GE7      -0.026000
     16 C9          -0.1380   -31.6050   -35.3290 ca         1 GE7      -0.066000
     17 C10         -0.7220   -30.5600   -36.0810 ca         1 GE7      -0.086000
     18 C14          0.4850   -32.6690   -36.0180 ca         1 GE7       0.268000
     19 N15          1.0290   -33.7240   -35.3710 nb         1 GE7      -0.710000
     20 O20         -0.2580   -34.5060   -30.1860 o          1 GE7      -0.705000
     21 O21         -1.5930   -34.0500   -31.9150 o          1 GE7      -0.705000
     22 O22          1.7350   -33.1030   -31.2630 os         1 GE7      -0.428000
     23 H1           1.0220   -33.4760   -37.9370 ha         1 GE7       0.116000
     24 H2           0.0690   -31.8930   -31.3500 h1         1 GE7       0.037700
     25 H3           3.5650   -33.2610   -29.4420 hc         1 GE7       0.033144
     26 H4           4.2820   -33.4260   -31.0510 hc         1 GE7       0.033144
     27 H5           4.5980   -31.9830   -30.0860 hc         1 GE7       0.033144
     28 H6          -1.1180   -29.7600   -38.0130 ha         1 GE7       0.096000
     29 H7           0.0150   -31.6130   -39.2140 ha         1 GE7       0.096000
     30 H8           1.7030   -35.7710   -34.2200 hc         1 GE7       0.056700
     31 H9           2.6200   -34.7850   -33.0830 hc         1 GE7       0.056700
     32 H10          1.0480   -35.4000   -32.6230 hc         1 GE7       0.056700
     33 H11         -3.1830   -26.6240   -31.7450 hc         1 GE7       0.032033
     34 H12         -3.2690   -27.5740   -30.2690 hc         1 GE7       0.032033
     35 H13         -1.8500   -26.5800   -30.6030 hc         1 GE7       0.032033
     36 H14         -0.2580   -27.2590   -32.4510 ha         1 GE7       0.102000
     37 H15          0.7600   -29.1200   -33.6720 ha         1 GE7       0.137000
     38 H16         -2.4400   -31.6800   -32.4540 ha         1 GE7       0.137000
     39 H17         -3.4840   -29.8020   -31.2630 ha         1 GE7       0.102000
     40 H18         -1.2240   -29.7490   -35.5710 ha         1 GE7       0.114000
     41 H20          3.8300   -30.5450   -31.9680 hc         1 GE7       0.033144
     42 H21          3.4470   -31.9430   -32.9750 hc         1 GE7       0.033144
     43 H22          2.2230   -30.7090   -32.6560 hc         1 GE7       0.033144
     44 H23          1.6410   -31.6010   -29.0710 hc         1 GE7       0.033144
     45 H24          2.7780   -30.3610   -29.6010 hc         1 GE7       0.033144
     46 H25          1.2020   -30.4680   -30.3590 hc         1 GE7       0.033144
     47 C23          2.6220   -32.0290   -30.9630 c3         1 GE7       0.187000
     48 C25          3.0490   -31.2660   -32.2160 c3         1 GE7      -0.101100
     49 C26          2.0170   -31.0630   -29.9430 c3         1 GE7      -0.101100
     50 C1          -2.5960   -27.2340   -31.0550 c3         1 GE7      -0.038800
     51 C24          3.8370   -32.7180   -30.3490 c3         1 GE7      -0.101100
@<TRIPOS>BOND
     1     1     7 ar  
     2     1    18 ar  
     3     1    23 1   
     4     2     3 1   
     5     2     5 1   
     6     2    22 1   
     7     2    24 1   
     8     3     4 ar  
     9     3    15 ar  
    10     4     8 1   
    11     4    19 ar  
    12     5    20 1   
    13     5    21 1   
    14     6     7 ar  
    15     6    17 ar  
    16     6    28 1   
    17     7    29 1   
    18     8    30 1   
    19     8    31 1   
    20     8    32 1   
    21     9    10 ar  
    22     9    14 ar  
    23     9    50 1   
    24    10    11 ar  
    25    10    36 1   
    26    11    12 ar  
    27    11    37 1   
    28    12    13 ar  
    29    12    15 1   
    30    13    14 ar  
    31    13    38 1   
    32    14    39 1   
    33    15    16 ar  
    34    16    17 ar  
    35    16    18 ar  
    36    17    40 1   
    37    18    19 ar  
    38    22    47 1   
    39    25    51 1   
    40    26    51 1   
    41    27    51 1   
    42    33    50 1   
    43    34    50 1   
    44    35    50 1   
    45    41    48 1   
    46    42    48 1   
    47    43    48 1   
    48    44    49 1   
    49    45    49 1   
    50    46    49 1   
    51    47    48 1   
    52    47    49 1   
    53    47    51 1   
@<TRIPOS>SUBSTRUCTURE
     1 GE7         1 TEMP              0 ****  ****    0 ROOT
