@<TRIPOS>MOLECULE
GE8
   36    36     1     0     0
SMALL
No Charge or Current Charge


@<TRIPOS>ATOM
      1 C12         -2.2270     0.9340    -0.0680 ca         1 GE8       0.162100
      2 C13         -1.6430    -0.3090     0.2730 ca         1 GE8      -0.162000
      3 C14         -2.4460    -1.4600     0.3840 ca         1 GE8      -0.066000
      4 C15         -3.8290    -1.3810     0.1530 ca         1 GE8       0.081000
      5 C17         -4.4140    -0.1530    -0.1900 ca         1 GE8      -0.066000
      6 C18         -3.6120     0.9980    -0.3010 ca         1 GE8      -0.162000
      7 C10          0.1610     3.7790    -0.2790 c3         1 GE8      -0.106100
      8 C02          4.9200    -1.5670    -0.3120 c3         1 GE8       0.085600
      9 C03          3.9030    -0.5930     0.3110 c3         1 GE8      -0.088400
     10 C04          2.8940    -0.0490    -0.7160 c3         1 GE8       0.103000
     11 C06          0.8290     1.3900    -0.7420 c          1 GE8       0.571100
     12 C08         -0.1130     2.3090     0.1200 c3         1 GE8       0.118000
     13 C09          0.0520     2.1640     1.6640 c3         1 GE8      -0.106100
     14 N05          1.9360     0.8690    -0.0980 ns         1 GE8      -0.510900
     15 O07          0.5730     1.0730    -1.8980 o          1 GE8      -0.575100
     16 O11         -1.5170     2.1170    -0.2020 os         1 GE8      -0.331100
     17 S01          6.1380    -2.2260     0.9190 sh         1 GE8      -0.455800
     18 Cl          -4.8270    -2.8230     0.2920 cl         1 GE8      -0.208000
     19 H1          -0.5800    -0.4140     0.4510 ha         1 GE8       0.124000
     20 H2          -1.9960    -2.4150     0.6460 ha         1 GE8       0.127500
     21 H3          -5.4850    -0.0920    -0.3700 ha         1 GE8       0.127500
     22 H4          -4.0670     1.9480    -0.5670 ha         1 GE8       0.124000
     23 H5          -0.0150     3.9300    -1.3520 hc         1 GE8       0.054367
     24 H6          -0.4920     4.4650     0.2730 hc         1 GE8       0.054367
     25 H7           1.2020     4.0530    -0.0660 hc         1 GE8       0.054367
     26 H8           4.3870    -2.4160    -0.7600 h1         1 GE8       0.063200
     27 H9           5.4760    -1.0550    -1.1090 h1         1 GE8       0.063200
     28 H10          3.3610    -1.1070     1.1140 hc         1 GE8       0.059200
     29 H11          4.4430     0.2450     0.7680 hc         1 GE8       0.059200
     30 H12          3.4280     0.4840    -1.5150 h1         1 GE8       0.054700
     31 H13          2.3440    -0.8850    -1.1680 h1         1 GE8       0.054700
     32 H14          1.0230     2.5520     1.9930 hc         1 GE8       0.054367
     33 H15         -0.7240     2.7360     2.1870 hc         1 GE8       0.054367
     34 H16         -0.0210     1.1230     1.9950 hc         1 GE8       0.054367
     35 H17          2.0890     1.1510     0.8630 hn         1 GE8       0.318500
     36 H18          6.8270    -3.0020     0.0450 hs         1 GE8       0.216800
@<TRIPOS>BOND
     1     1     2 ar  
     2     1     6 ar  
     3     1    16 1   
     4     2     3 ar  
     5     2    19 1   
     6     3     4 ar  
     7     3    20 1   
     8     4     5 ar  
     9     4    18 1   
    10     5     6 ar  
    11     5    21 1   
    12     6    22 1   
    13     7    12 1   
    14     7    23 1   
    15     7    24 1   
    16     7    25 1   
    17     8     9 1   
    18     8    17 1   
    19     8    26 1   
    20     8    27 1   
    21     9    10 1   
    22     9    28 1   
    23     9    29 1   
    24    10    14 1   
    25    10    30 1   
    26    10    31 1   
    27    11    12 1   
    28    11    14 1   
    29    11    15 2   
    30    12    13 1   
    31    12    16 1   
    32    13    32 1   
    33    13    33 1   
    34    13    34 1   
    35    14    35 1   
    36    17    36 1   
@<TRIPOS>SUBSTRUCTURE
     1 GE8         1 TEMP              0 ****  ****    0 ROOT
