@<TRIPOS>MOLECULE
GE8
   36    36     1     0     0
SMALL
bcc


@<TRIPOS>ATOM
      1 C12         -2.1910     0.9510    -0.0840 ca         1 GE8       0.162100
      2 C13         -1.7370    -0.2800     0.3850 ca         1 GE8      -0.180000
      3 C14         -2.6050    -1.3630     0.4570 ca         1 GE8      -0.084000
      4 C15         -3.9230    -1.2240     0.0650 ca         1 GE8      -0.010600
      5 C17         -4.3900    -0.0040    -0.4030 ca         1 GE8      -0.084000
      6 C18         -3.5260     1.0730    -0.4730 ca         1 GE8      -0.180000
      7 C10          0.3550     3.5490    -0.2340 c3         1 GE8      -0.106100
      8 C02          4.9660    -1.3780    -0.4420 c3         1 GE8       0.037700
      9 C03          3.9630    -0.4820     0.2680 c3         1 GE8      -0.088400
     10 C04          2.7430    -0.2490    -0.6100 c3         1 GE8       0.103000
     11 C06          0.7400     1.1460    -0.5700 c          1 GE8       0.638100
     12 C08         -0.1040     2.1640     0.2220 c3         1 GE8       0.094800
     13 C09         -0.0100     2.0760     1.7430 c3         1 GE8      -0.106100
     14 N05          1.8020     0.6290     0.0580 ns         1 GE8      -0.577900
     15 O07          0.4660     0.8920    -1.7320 o          1 GE8      -0.575100
     16 O11         -1.4560     2.0730    -0.2100 os         1 GE8      -0.307900
     17 S01          6.4150    -1.6170     0.6380 sh         1 GE8      -0.407900
     18 CL          -5.0000    -2.5810     0.1580 cl         1 GE8      -0.116400
     19 H1          -0.7180    -0.4420     0.7050 ha         1 GE8       0.142000
     20 H2          -2.2360    -2.3110     0.8220 ha         1 GE8       0.145500
     21 H3          -5.4200     0.1130    -0.7110 ha         1 GE8       0.145500
     22 H4          -3.8880     2.0260    -0.8390 ha         1 GE8       0.142000
     23 H5           0.2310     3.6710    -1.3100 hc         1 GE8       0.054367
     24 H6          -0.2200     4.3240     0.2750 hc         1 GE8       0.054367
     25 H7           1.4070     3.6960     0.0090 hc         1 GE8       0.054367
     26 H8           4.5190    -2.3470    -0.6670 h1         1 GE8       0.063200
     27 H9           5.2850    -0.9230    -1.3790 h1         1 GE8       0.063200
     28 H10          3.6580    -0.9450     1.2110 hc         1 GE8       0.059200
     29 H11          4.4290     0.4760     0.5120 hc         1 GE8       0.059200
     30 H12          3.0450     0.2020    -1.5570 h1         1 GE8       0.054700
     31 H13          2.2650    -1.2040    -0.8470 h1         1 GE8       0.054700
     32 H14          0.9880     2.3460     2.0900 hc         1 GE8       0.054367
     33 H15         -0.6970     2.8000     2.1820 hc         1 GE8       0.054367
     34 H16         -0.2530     1.0960     2.1490 hc         1 GE8       0.054367
     35 H17          1.9600     0.8330     1.0310 hn         1 GE8       0.318500
     36 H18          7.1150    -2.4140    -0.1750 hs         1 GE8       0.216800
@<TRIPOS>BOND
     1     1     2 ar  
     2     1     6 ar  
     3     1    16 1   
     4     2     3 ar  
     5     2    19 1   
     6     3     4 ar  
     7     3    20 1   
     8     4     5 ar  
     9     4    18 1   
    10     5     6 ar  
    11     5    21 1   
    12     6    22 1   
    13     7    12 1   
    14     7    23 1   
    15     7    24 1   
    16     7    25 1   
    17     8     9 1   
    18     8    17 1   
    19     8    26 1   
    20     8    27 1   
    21     9    10 1   
    22     9    28 1   
    23     9    29 1   
    24    10    14 1   
    25    10    30 1   
    26    10    31 1   
    27    11    12 1   
    28    11    14 1   
    29    11    15 2   
    30    12    13 1   
    31    12    16 1   
    32    13    32 1   
    33    13    33 1   
    34    13    34 1   
    35    14    35 1   
    36    17    36 1   
@<TRIPOS>SUBSTRUCTURE
     1 GE8         1 TEMP              0 ****  ****    0 ROOT
