@<TRIPOS>MOLECULE
GE9
   16    16     1     0     0
SMALL
bcc


@<TRIPOS>ATOM
      1 C01        125.9470   128.6560   187.2370 ca         1 GE9       0.123900
      2 C02        124.9980   127.7320   187.6700 ca         1 GE9       0.067900
      3 C03        127.2650   128.5330   187.6740 ca         1 GE9      -0.132600
      4 C04        127.6240   127.5060   188.5370 ca         1 GE9      -0.070000
      5 C05        126.6720   126.5880   188.9470 ca         1 GE9       0.055900
      6 C06        125.3590   126.6910   188.5200 ca         1 GE9      -0.063000
      7 C07        128.3710   129.4340   187.1840 c          1 GE9       0.681700
      8 I01        122.9800   127.8120   187.1020 i          1 GE9      -0.127900
      9 I02        127.2180   125.0290   190.2390 i          1 GE9      -0.146900
     10 I03        125.4300   130.2680   186.0000 i          1 GE9      -0.111900
     11 N01        128.9070   130.2070   188.1320 nt         1 GE9      -0.666000
     12 O01        128.7390   129.3950   186.0240 o          1 GE9      -0.568100
     13 H1         128.6500   127.4290   188.8730 ha         1 GE9       0.155000
     14 H2         124.6180   125.9740   188.8440 ha         1 GE9       0.162000
     15 H3         129.6760   130.8220   187.9150 hn         1 GE9       0.320500
     16 H4         128.5380   130.2360   189.0680 hn         1 GE9       0.320500
@<TRIPOS>BOND
     1     1     2 ar  
     2     1     3 ar  
     3     1    10 1   
     4     2     6 ar  
     5     2     8 1   
     6     3     4 ar  
     7     3     7 1   
     8     4     5 ar  
     9     4    13 1   
    10     5     6 ar  
    11     5     9 1   
    12     6    14 1   
    13     7    11 1   
    14     7    12 2   
    15    11    15 1   
    16    11    16 1   
@<TRIPOS>SUBSTRUCTURE
     1 GE9         1 TEMP              0 ****  ****    0 ROOT
