@<TRIPOS>MOLECULE
GE9
   16    16     1     0     0
SMALL
No Charge or Current Charge


@<TRIPOS>ATOM
      1 C01        125.8930   128.6260   187.1390 ca         1 GE9       0.261000
      2 C02        124.9690   127.6410   187.5680 ca         1 GE9       0.205000
      3 C03        127.2120   128.6350   187.6750 ca         1 GE9      -0.132600
      4 C04        127.5600   127.6530   188.6390 ca         1 GE9      -0.052000
      5 C05        126.6320   126.6860   189.0510 ca         1 GE9       0.193000
      6 C06        125.3400   126.6770   188.5160 ca         1 GE9      -0.045000
      7 C07        128.2530   129.6370   187.2410 c          1 GE9       0.614700
      8 I01        122.9220   127.5640   186.8060 i          1 GE9      -0.265000
      9 I02        127.2060   125.1930   190.5130 i          1 GE9      -0.284000
     10 I03        125.1840   130.1580   185.7250 i          1 GE9      -0.249000
     11 N01        129.2090   129.9700   188.1360 nt         1 GE9      -0.599000
     12 O01        128.3250   130.0980   186.1150 o          1 GE9      -0.568100
     13 H1         128.5610   127.6100   189.0590 ha         1 GE9       0.137000
     14 H2         124.6250   125.9270   188.8380 ha         1 GE9       0.144000
     15 H3         129.9320   130.6190   187.8630 hn         1 GE9       0.320500
     16 H4         129.1710   129.6170   189.0810 hn         1 GE9       0.320500
@<TRIPOS>BOND
     1     1     2 ar  
     2     1     3 ar  
     3     1    10 1   
     4     2     6 ar  
     5     2     8 1   
     6     3     4 ar  
     7     3     7 1   
     8     4     5 ar  
     9     4    13 1   
    10     5     6 ar  
    11     5     9 1   
    12     6    14 1   
    13     7    11 1   
    14     7    12 2   
    15    11    15 1   
    16    11    16 1   
@<TRIPOS>SUBSTRUCTURE
     1 GE9         1 TEMP              0 ****  ****    0 ROOT
