@<TRIPOS>MOLECULE
GEA
  142   152     1     0     0
SMALL
No Charge or Current Charge


@<TRIPOS>ATOM
      1 N1           2.8550     0.3630    14.2010 nt         1 GEA      -0.599000
      2 C2           1.7840     0.8090    13.5040 c          1 GEA       0.607100
      3 O3           1.5980     0.3960    12.3690 o          1 GEA      -0.602100
      4 C4           0.8800     1.8180    14.2870 c5         1 GEA       0.025700
      5 C5           0.1340     1.0550    15.4210 c5         1 GEA      -0.086400
      6 C6          -1.0410     2.0160    15.7170 c5         1 GEA      -0.092400
      7 C7          -1.5280     2.3870    14.2930 c5         1 GEA       0.108000
      8 N8          -0.2590     2.4040    13.5230 n          1 GEA      -0.407800
      9 C9          -0.0550     3.1620    12.3400 c          1 GEA       0.618100
     10 O10          1.0690     3.5090    11.9890 o          1 GEA      -0.576100
     11 C11         -1.3920     3.4260    11.5480 c5         1 GEA       0.011500
     12 C12         -1.9230     2.0860    10.9830 c5         1 GEA       0.114600
     13 O13         -1.3490     2.0460     9.6660 os         1 GEA      -0.412600
     14 C14         -1.1260     3.3690     9.3290 ce         1 GEA       0.570600
     15 N15         -1.2110     4.2350    10.2980 n2         1 GEA      -0.626900
     16 C16         -0.7910     3.7270     7.9240 cc         1 GEA       0.245700
     17 C17         -0.5270     4.9990     7.4640 cd         1 GEA      -0.209000
     18 S18         -0.1710     5.0090     5.7470 ss         1 GEA       0.013600
     19 C19         -0.4210     3.2660     5.7670 cd         1 GEA       0.357400
     20 N20         -0.7220     2.7410     6.9550 nc         1 GEA      -0.559000
     21 C21         -0.2360     2.4510     4.5320 ca         1 GEA       0.330000
     22 C22          0.7440     2.8000     3.5840 ca         1 GEA      -0.155000
     23 C23          0.9180     2.0000     2.4470 ca         1 GEA      -0.041000
     24 C24          0.1020     0.8670     2.2770 ca         1 GEA      -0.151500
     25 C25         -0.8900     0.5790     3.2500 ca         1 GEA       0.354000
     26 N26         -1.0270     1.3590     4.3580 nb         1 GEA      -0.628000
     27 C27         -1.8730    -0.5330     3.0880 cc         1 GEA       0.203000
     28 C28         -2.5840    -0.9820     4.1790 cd         1 GEA      -0.209000
     29 S29         -3.7230    -2.2290     3.7020 ss         1 GEA      -0.009400
     30 C30         -3.2140    -1.9540     2.0320 cd         1 GEA       0.402400
     31 N31         -2.2180    -1.0820     1.8760 nc         1 GEA      -0.599000
     32 C32         -3.8980    -2.5610     0.8960 cd         1 GEA       0.248000
     33 C33         -4.9510    -3.4330     1.0930 cc         1 GEA      -0.286000
     34 S34         -5.6180    -3.9610    -0.4300 ss         1 GEA       0.069600
     35 C35         -4.4060    -2.9900    -1.2350 cc         1 GEA       0.412700
     36 N36         -3.5960    -2.2990    -0.4370 nd         1 GEA      -0.616000
     37 C37         -4.3540    -2.8580    -2.7480 c3         1 GEA       0.098400
     38 C38         -3.6090    -4.0550    -3.4190 c3         1 GEA       0.198600
     39 O39         -4.2210    -5.2990    -3.0520 oh         1 GEA      -0.672000
     40 C40         -2.1140    -4.1000    -3.0970 ca         1 GEA      -0.122300
     41 C41         -1.6430    -4.5780    -1.8540 ca         1 GEA      -0.088000
     42 C42         -0.2660    -4.6050    -1.5760 ca         1 GEA      -0.115500
     43 C43          0.6530    -4.1660    -2.5410 ca         1 GEA      -0.119000
     44 C44          0.1950    -3.6960    -3.7830 ca         1 GEA      -0.115500
     45 C45         -1.1810    -3.6610    -4.0580 ca         1 GEA      -0.088000
     46 N46         -3.8010    -1.5280    -3.1140 ns         1 GEA      -0.497900
     47 C47         -3.5840    -1.0230    -4.3770 c          1 GEA       0.586100
     48 O48         -3.8630    -1.6460    -5.3920 o          1 GEA      -0.606100
     49 C49         -3.0080     0.4130    -4.3760 c3         1 GEA       0.031000
     50 N50         -2.2810     0.7660    -5.6160 ns         1 GEA      -0.467900
     51 C51         -2.7760     1.5530    -6.6350 c          1 GEA       0.539600
     52 O52         -3.9480     1.9170    -6.6460 o          1 GEA      -0.617100
     53 C53         -1.7230     1.9130    -7.6600 cc         1 GEA       0.216500
     54 C54         -1.9960     2.7230    -8.7500 cd         1 GEA      -0.174300
     55 S55         -0.5400     3.0120    -9.6960 ss         1 GEA       0.061600
     56 C56          0.3130     1.9730    -8.5650 cd         1 GEA       0.392700
     57 N57         -0.4070     1.4840    -7.5590 nc         1 GEA      -0.639000
     58 C58         -3.3150     3.3540    -9.1410 c3         1 GEA       0.225900
     59 O59         -3.1710     4.0570   -10.3890 os         1 GEA      -0.473000
     60 C60         -4.3710     4.6970   -10.8550 c3         1 GEA       0.150900
     61 C61          1.8140     1.7350    -8.6910 c3         1 GEA       0.092400
     62 C62          2.1950     0.5490    -9.6310 c3         1 GEA      -0.078700
     63 C63          1.6960    -0.8260    -9.1170 c3         1 GEA      -0.090600
     64 C64          1.7620     0.7840   -11.0980 c3         1 GEA      -0.090600
     65 N65          2.4650     1.5660    -7.3790 ns         1 GEA      -0.477900
     66 C66          3.7050     2.0510    -7.0140 c          1 GEA       0.536600
     67 O67          4.3400     2.8040    -7.7450 o          1 GEA      -0.613100
     68 C68          4.1400     1.5380    -5.6620 cc         1 GEA       0.215500
     69 C69          5.3290     1.9100    -5.0540 cd         1 GEA      -0.128300
     70 S70          5.5260     1.1000    -3.5040 ss         1 GEA      -0.042400
     71 C71          3.9950     0.2980    -3.8180 cd         1 GEA       0.409700
     72 N72          3.3810     0.6280    -4.9480 nc         1 GEA      -0.630000
     73 C73          6.3950     2.8620    -5.5400 c3         1 GEA      -0.021800
     74 C74          3.4210    -0.7670    -2.8860 c3         1 GEA       0.112400
     75 C75          4.2240    -2.0960    -2.9450 c3         1 GEA      -0.175400
     76 C76          4.3930    -2.6350    -4.3690 c          1 GEA       0.601100
     77 O77          5.1950    -2.1630    -5.1600 o          1 GEA      -0.595100
     78 N78          3.6210    -3.7280    -4.6830 ns         1 GEA      -0.509900
     79 C79          3.6260    -4.3940    -5.9870 c3         1 GEA       0.093300
     80 N80          1.9850    -0.9790    -3.1690 ns         1 GEA      -0.482900
     81 C81          0.9780    -0.3620    -2.4480 c          1 GEA       0.547600
     82 O82          0.1350     0.2680    -3.0700 o          1 GEA      -0.578100
     83 C83          0.9890    -0.4890    -0.9380 cc         1 GEA       0.226500
     84 C84          1.6910    -1.4850    -0.2880 cd         1 GEA      -0.250000
     85 S85          1.3970    -1.4520     1.4390 ss         1 GEA       0.019600
     86 C86          0.3900    -0.0380     1.1610 cd         1 GEA       0.508900
     87 N87          0.2760     0.3550    -0.1020 nc         1 GEA      -0.596000
     88 HN11         3.4850    -0.2960    13.7670 hn         1 GEA       0.315000
     89 HN12         3.0220     0.6890    15.1410 hn         1 GEA       0.315000
     90 HC41         1.5180     2.6130    14.6940 h1         1 GEA       0.070700
     91 HC51         0.7650     0.8770    16.2990 hc         1 GEA       0.061200
     92 HC52        -0.2360     0.0810    15.0770 hc         1 GEA       0.061200
     93 HC61        -0.6960     2.9050    16.2570 hc         1 GEA       0.057700
     94 HC62        -1.8300     1.5520    16.3210 hc         1 GEA       0.057700
     95 HC71        -2.0410     3.3580    14.2940 h1         1 GEA       0.050200
     96 HC72        -2.2130     1.6260    13.8950 h1         1 GEA       0.050200
     97 H111        -2.1190     3.9070    12.2130 h1         1 GEA       0.087700
     98 H121        -1.6290     1.1970    11.5580 h1         1 GEA       0.076700
     99 H122        -3.0180     2.1030    10.8900 h1         1 GEA       0.076700
    100 H171        -0.5220     5.9190     8.0350 h4         1 GEA       0.185000
    101 H221         1.3820     3.6660     3.7370 ha         1 GEA       0.132000
    102 H231         1.6960     2.2400     1.7240 ha         1 GEA       0.137000
    103 H281        -2.5050    -0.6660     5.2120 h4         1 GEA       0.182000
    104 H331        -5.3880    -3.7900     2.0150 h4         1 GEA       0.163000
    105 H371        -5.3910    -2.8840    -3.1080 h1         1 GEA       0.092700
    106 H381        -3.7090    -3.9380    -4.5060 h1         1 GEA       0.074700
    107 HO39        -3.6760    -6.0090    -3.4580 ho         1 GEA       0.457000
    108 H411        -2.3420    -4.9300    -1.0980 ha         1 GEA       0.122000
    109 H421         0.0870    -4.9700    -0.6150 ha         1 GEA       0.115500
    110 H431         1.7160    -4.1960    -2.3220 ha         1 GEA       0.101000
    111 H441         0.8990    -3.3550    -4.5370 ha         1 GEA       0.115500
    112 H451        -1.5210    -3.2920    -5.0240 ha         1 GEA       0.122000
    113 H46         -3.5030    -0.9420    -2.3400 hn         1 GEA       0.357500
    114 H491        -3.8420     1.1070    -4.2110 h1         1 GEA       0.082200
    115 H492        -2.3260     0.5090    -3.5240 h1         1 GEA       0.082200
    116 H501        -1.2970     0.5280    -5.6960 hn         1 GEA       0.352500
    117 H581        -4.0760     2.5670    -9.2310 h1         1 GEA       0.065200
    118 H582        -3.6310     4.0440    -8.3460 h1         1 GEA       0.065200
    119 H601        -4.1850     5.2090   -11.8070 h1         1 GEA       0.032700
    120 H602        -5.1700     3.9610   -11.0140 h1         1 GEA       0.032700
    121 H603        -4.7230     5.4420   -10.1300 h1         1 GEA       0.032700
    122 H611         2.2260     2.6480    -9.1400 h1         1 GEA       0.083700
    123 H621         3.2910     0.5010    -9.6420 hc         1 GEA       0.061700
    124 H631         2.0450    -1.6320    -9.7740 hc         1 GEA       0.038867
    125 H632         2.0730    -1.0340    -8.1080 hc         1 GEA       0.038867
    126 H633         0.6000    -0.8640    -9.0890 hc         1 GEA       0.038867
    127 H641         0.6710     0.7430   -11.2030 hc         1 GEA       0.038867
    128 H642         2.1110     1.7600   -11.4570 hc         1 GEA       0.038867
    129 H643         2.1900     0.0130   -11.7510 hc         1 GEA       0.038867
    130 H651         2.0080     0.9810    -6.6860 hn         1 GEA       0.355500
    131 H731         7.2060     2.9630    -4.8080 hc         1 GEA       0.062033
    132 H732         6.8400     2.5110    -6.4780 hc         1 GEA       0.062033
    133 H733         5.9820     3.8620    -5.7140 hc         1 GEA       0.062033
    134 H741         3.5180    -0.3680    -1.8680 h1         1 GEA       0.077700
    135 H751         3.7170    -2.8410    -2.3250 hc         1 GEA       0.068700
    136 H752         5.2230    -1.9050    -2.5350 hc         1 GEA       0.068700
    137 H781         3.0090    -4.0840    -3.9600 hn         1 GEA       0.312500
    138 H791         2.9000    -5.2170    -5.9820 h1         1 GEA       0.043700
    139 H792         3.3510    -3.6750    -6.7700 h1         1 GEA       0.043700
    140 H793         4.6260    -4.7940    -6.1950 h1         1 GEA       0.043700
    141 H801         1.7790    -0.9800    -4.1610 hn         1 GEA       0.338500
    142 H841         2.2910    -2.2750    -0.7150 h4         1 GEA       0.165000
@<TRIPOS>BOND
     1     1     2 1   
     2     1    88 1   
     3     1    89 1   
     4     2     3 2   
     5     2     4 1   
     6     4     5 1   
     7     4     8 1   
     8     4    90 1   
     9     5     6 1   
    10     5    91 1   
    11     5    92 1   
    12     6     7 1   
    13     6    93 1   
    14     6    94 1   
    15     7     8 1   
    16     7    95 1   
    17     7    96 1   
    18     8     9 1   
    19     9    10 2   
    20     9    11 1   
    21    11    12 1   
    22    11    15 1   
    23    11    97 1   
    24    12    13 1   
    25    12    98 1   
    26    12    99 1   
    27    13    14 1   
    28    14    15 2   
    29    14    16 1   
    30    16    17 2   
    31    16    20 1   
    32    17    18 1   
    33    17   100 1   
    34    18    19 1   
    35    19    20 2   
    36    19    21 1   
    37    21    22 ar  
    38    21    26 ar  
    39    22    23 ar  
    40    22   101 1   
    41    23    24 ar  
    42    23   102 1   
    43    24    25 ar  
    44    24    86 1   
    45    25    26 ar  
    46    25    27 1   
    47    27    28 2   
    48    27    31 1   
    49    28    29 1   
    50    28   103 1   
    51    29    30 1   
    52    30    31 2   
    53    30    32 1   
    54    32    33 2   
    55    32    36 1   
    56    33    34 1   
    57    33   104 1   
    58    34    35 1   
    59    35    36 2   
    60    35    37 1   
    61    37    38 1   
    62    37    46 1   
    63    37   105 1   
    64    38    39 1   
    65    38    40 1   
    66    38   106 1   
    67    39   107 1   
    68    40    41 ar  
    69    40    45 ar  
    70    41    42 ar  
    71    41   108 1   
    72    42    43 ar  
    73    42   109 1   
    74    43    44 ar  
    75    43   110 1   
    76    44    45 ar  
    77    44   111 1   
    78    45   112 1   
    79    46    47 1   
    80    46   113 1   
    81    47    48 2   
    82    47    49 1   
    83    49    50 1   
    84    49   114 1   
    85    49   115 1   
    86    50    51 1   
    87    50   116 1   
    88    51    52 2   
    89    51    53 1   
    90    53    54 2   
    91    53    57 1   
    92    54    55 1   
    93    54    58 1   
    94    55    56 1   
    95    56    57 2   
    96    56    61 1   
    97    58    59 1   
    98    58   117 1   
    99    58   118 1   
   100    59    60 1   
   101    60   119 1   
   102    60   120 1   
   103    60   121 1   
   104    61    62 1   
   105    61    65 1   
   106    61   122 1   
   107    62    63 1   
   108    62    64 1   
   109    62   123 1   
   110    63   124 1   
   111    63   125 1   
   112    63   126 1   
   113    64   127 1   
   114    64   128 1   
   115    64   129 1   
   116    65    66 1   
   117    65   130 1   
   118    66    67 2   
   119    66    68 1   
   120    68    69 2   
   121    68    72 1   
   122    69    70 1   
   123    69    73 1   
   124    70    71 1   
   125    71    72 2   
   126    71    74 1   
   127    73   131 1   
   128    73   132 1   
   129    73   133 1   
   130    74    75 1   
   131    74    80 1   
   132    74   134 1   
   133    75    76 1   
   134    75   135 1   
   135    75   136 1   
   136    76    77 2   
   137    76    78 1   
   138    78    79 1   
   139    78   137 1   
   140    79   138 1   
   141    79   139 1   
   142    79   140 1   
   143    80    81 1   
   144    80   141 1   
   145    81    82 2   
   146    81    83 1   
   147    83    84 2   
   148    83    87 1   
   149    84    85 1   
   150    84   142 1   
   151    85    86 1   
   152    86    87 2   
@<TRIPOS>SUBSTRUCTURE
     1 GEA         1 TEMP              0 ****  ****    0 ROOT
