@<TRIPOS>MOLECULE
GEA
  142   152     1     0     0
SMALL
bcc


@<TRIPOS>ATOM
      1 N1           2.3080     2.0880    14.3760 nt         1 GEA      -0.666000
      2 C2           1.1230     1.8130    13.8190 c          1 GEA       0.674100
      3 O3           0.9070     0.8310    13.1260 o          1 GEA      -0.602100
      4 C4           0.0080     2.7810    14.1960 c5         1 GEA       0.025700
      5 C5          -0.8200     2.2230    15.3670 c5         1 GEA      -0.086400
      6 C6          -2.2510     2.6210    15.0240 c5         1 GEA      -0.092400
      7 C7          -2.2900     2.4670    13.5110 c5         1 GEA       0.108000
      8 N8          -0.9560     2.9030    13.1180 n          1 GEA      -0.474800
      9 C9          -0.5420     3.2930    11.9030 c          1 GEA       0.685100
     10 O10          0.6080     3.6420    11.6920 o          1 GEA      -0.576100
     11 C11         -1.5680     3.2080    10.7800 c5         1 GEA       0.011500
     12 C12         -1.7160     1.7470    10.2830 c5         1 GEA       0.091400
     13 O13         -1.1570     1.7940     8.9630 os         1 GEA      -0.389400
     14 C14         -0.8950     3.0810     8.7110 ce         1 GEA       0.570600
     15 N15         -1.1050     3.9380     9.6180 n2         1 GEA      -0.626900
     16 C16         -0.3760     3.3840     7.3800 cc         1 GEA       0.311000
     17 C17          0.1260     4.6020     7.0220 cd         1 GEA      -0.147400
     18 S18          0.6260     4.5580     5.4010 ss         1 GEA      -0.131300
     19 C19          0.1290     2.8990     5.3060 cd         1 GEA       0.357400
     20 N20         -0.3680     2.4360     6.4070 nc         1 GEA      -0.559000
     21 C21          0.2610     2.1190     4.0690 ca         1 GEA       0.395300
     22 C22          1.0170     2.5780     2.9950 ca         1 GEA      -0.238300
     23 C23          1.1360     1.7640     1.8850 ca         1 GEA      -0.059000
     24 C24          0.4920     0.5330     1.8590 ca         1 GEA      -0.216800
     25 C25         -0.3110     0.1980     2.9600 ca         1 GEA       0.419300
     26 N26         -0.3940     0.9660     4.0360 nb         1 GEA      -0.628000
     27 C27         -1.1550    -1.0060     2.9580 cc         1 GEA       0.268300
     28 C28         -1.4560    -1.7650     4.0490 cd         1 GEA      -0.147400
     29 S29         -2.4880    -3.0460     3.5910 ss         1 GEA      -0.154300
     30 C30         -2.4590    -2.4630     1.9580 cd         1 GEA       0.402400
     31 N31         -1.7300    -1.4080     1.7920 nc         1 GEA      -0.599000
     32 C32         -3.2020    -3.0930     0.8780 cd         1 GEA       0.313300
     33 C33         -4.0140    -4.1840     0.9680 cc         1 GEA      -0.224400
     34 S34         -4.6650    -4.5530    -0.5680 ss         1 GEA      -0.075300
     35 C35         -3.8170    -3.2000    -1.2300 cc         1 GEA       0.412700
     36 N36         -3.1090    -2.5510    -0.3710 nd         1 GEA      -0.616000
     37 C37         -3.9110    -2.7870    -2.6720 c3         1 GEA       0.098400
     38 C38         -3.4270    -3.8940    -3.6350 c3         1 GEA       0.175400
     39 O39         -4.2910    -4.9760    -3.3940 oh         1 GEA      -0.609800
     40 C40         -1.9700    -4.2480    -3.4740 ca         1 GEA      -0.122300
     41 C41         -1.5330    -5.1400    -2.4970 ca         1 GEA      -0.106000
     42 C42         -0.1890    -5.4650    -2.3900 ca         1 GEA      -0.133500
     43 C43          0.7360    -4.9190    -3.2690 ca         1 GEA      -0.137000
     44 C44          0.3080    -4.0390    -4.2540 ca         1 GEA      -0.133500
     45 C45         -1.0340    -3.7010    -4.3470 ca         1 GEA      -0.106000
     46 N46         -3.1950    -1.5500    -2.8180 ns         1 GEA      -0.564900
     47 C47         -3.4670    -0.6410    -3.7670 c          1 GEA       0.653100
     48 O48         -4.2070    -0.8520    -4.7150 o          1 GEA      -0.606100
     49 C49         -2.8350     0.7250    -3.5380 c3         1 GEA       0.031000
     50 N50         -2.1610     1.2210    -4.7020 ns         1 GEA      -0.534900
     51 C51         -2.6820     2.1420    -5.5240 c          1 GEA       0.606600
     52 O52         -3.7970     2.6320    -5.3940 o          1 GEA      -0.617100
     53 C53         -1.7910     2.5780    -6.6230 cc         1 GEA       0.281800
     54 C54         -2.1400     3.5270    -7.5400 cd         1 GEA      -0.094700
     55 S55         -0.8260     3.7830    -8.6080 ss         1 GEA      -0.083300
     56 C56          0.0930     2.5930    -7.7600 cd         1 GEA       0.392700
     57 N57         -0.5310     2.0620    -6.7620 nc         1 GEA      -0.639000
     58 C58         -3.3920     4.3190    -7.7180 c3         1 GEA       0.202700
     59 O59         -3.2270     5.0950    -8.8730 os         1 GEA      -0.426600
     60 C60         -4.3380     5.9170    -9.1420 c3         1 GEA       0.127700
     61 C61          1.4840     2.2240    -8.1880 c3         1 GEA       0.092400
     62 C62          1.5120     1.1120    -9.2660 c3         1 GEA      -0.078700
     63 C63          0.9550    -0.2130    -8.7620 c3         1 GEA      -0.090600
     64 C64          0.8320     1.5460   -10.5590 c3         1 GEA      -0.090600
     65 N65          2.2390     1.8410    -7.0210 ns         1 GEA      -0.544900
     66 C66          3.5750     1.9720    -6.9370 c          1 GEA       0.603600
     67 O67          4.2530     2.6030    -7.7360 o          1 GEA      -0.613100
     68 C68          4.1730     1.2470    -5.7920 cc         1 GEA       0.280800
     69 C69          5.5020     1.2170    -5.4760 cd         1 GEA      -0.048700
     70 S70          5.7150     0.1340    -4.1540 ss         1 GEA      -0.187300
     71 C71          4.0200    -0.1950    -4.1340 cd         1 GEA       0.409700
     72 N72          3.3630     0.4610    -5.0210 nc         1 GEA      -0.630000
     73 C73          6.6650     1.9210    -6.0870 c3         1 GEA      -0.021800
     74 C74          3.3820    -1.1710    -3.1760 c3         1 GEA       0.112400
     75 C75          4.1140    -2.5110    -3.1330 c3         1 GEA      -0.175400
     76 C76          4.0160    -3.2760    -4.4370 c          1 GEA       0.668100
     77 O77          3.7130    -2.7330    -5.4900 o          1 GEA      -0.595100
     78 N78          4.2880    -4.5840    -4.3460 ns         1 GEA      -0.576900
     79 C79          4.2610    -5.4640    -5.4910 c3         1 GEA       0.093300
     80 N80          1.9900    -1.3000    -3.5430 ns         1 GEA      -0.549900
     81 C81          0.9310    -0.9070    -2.8040 c          1 GEA       0.614600
     82 O82         -0.1130    -0.5310    -3.3040 o          1 GEA      -0.578100
     83 C83          1.0560    -1.0450    -1.3280 cc         1 GEA       0.291800
     84 C84          1.4340    -2.1900    -0.6970 cd         1 GEA      -0.188400
     85 S85          1.3000    -1.9870     0.9890 ss         1 GEA      -0.125300
     86 C86          0.7330    -0.3720     0.7300 cd         1 GEA       0.508900
     87 N87          0.6630    -0.0250    -0.5140 nc         1 GEA      -0.596000
     88 HN11         3.0990     1.4830    14.2250 hn         1 GEA       0.315000
     89 HN12         2.4650     2.9340    14.8960 hn         1 GEA       0.315000
     90 HC41         0.4200     3.7630    14.4480 h1         1 GEA       0.070700
     91 HC51        -0.4780     2.6170    16.3230 hc         1 GEA       0.061200
     92 HC52        -0.7390     1.1350    15.4070 hc         1 GEA       0.061200
     93 HC61        -2.4380     3.6610    15.2960 hc         1 GEA       0.057700
     94 HC62        -2.9940     2.0020    15.5230 hc         1 GEA       0.057700
     95 HC71        -3.0660     3.0780    13.0530 h1         1 GEA       0.050200
     96 HC72        -2.4640     1.4240    13.2270 h1         1 GEA       0.050200
     97 H111        -2.5290     3.6100    11.1080 h1         1 GEA       0.087700
     98 H121        -1.1590     1.0180    10.8740 h1         1 GEA       0.076700
     99 H122        -2.7570     1.4330    10.2180 h1         1 GEA       0.076700
    100 H171         0.2200     5.4900     7.6260 h4         1 GEA       0.203000
    101 H221         1.5330     3.5290     3.0210 ha         1 GEA       0.150000
    102 H231         1.7560     2.0690     1.0520 ha         1 GEA       0.155000
    103 H281        -1.1230    -1.6410     5.0670 h4         1 GEA       0.200000
    104 H331        -4.2480    -4.7840     1.8340 h4         1 GEA       0.181000
    105 H371        -4.9650    -2.6120    -2.9130 h1         1 GEA       0.092700
    106 H381        -3.5750    -3.4970    -4.6470 h1         1 GEA       0.074700
    107 HO39        -4.0050    -5.7320    -3.9160 ho         1 GEA       0.418000
    108 H411        -2.2380    -5.6070    -1.8210 ha         1 GEA       0.140000
    109 H421         0.1360    -6.1590    -1.6250 ha         1 GEA       0.133500
    110 H431         1.7820    -5.1870    -3.1960 ha         1 GEA       0.119000
    111 H441         1.0180    -3.6250    -4.9570 ha         1 GEA       0.133500
    112 H451        -1.3600    -3.0210    -5.1250 ha         1 GEA       0.140000
    113 H46         -2.5040    -1.3410    -2.1110 hn         1 GEA       0.357500
    114 H491        -3.6480     1.4040    -3.2770 h1         1 GEA       0.082200
    115 H492        -2.1430     0.7140    -2.6990 h1         1 GEA       0.082200
    116 H501        -1.2300     0.8760    -4.8850 hn         1 GEA       0.352500
    117 H581        -4.2540     3.6470    -7.8040 h1         1 GEA       0.065200
    118 H582        -3.5630     4.9450    -6.8320 h1         1 GEA       0.065200
    119 H601        -4.1380     6.4530   -10.0680 h1         1 GEA       0.032700
    120 H602        -5.2560     5.3330    -9.2670 h1         1 GEA       0.032700
    121 H603        -4.5050     6.6500    -8.3440 h1         1 GEA       0.032700
    122 H611         1.9560     3.1110    -8.6200 h1         1 GEA       0.083700
    123 H621         2.5750     0.9710    -9.4890 hc         1 GEA       0.061700
    124 H631         1.0500    -0.9760    -9.5360 hc         1 GEA       0.038867
    125 H632         1.4930    -0.5770    -7.8860 hc         1 GEA       0.038867
    126 H633        -0.1020    -0.1390    -8.5020 hc         1 GEA       0.038867
    127 H641        -0.2540     1.5850   -10.4580 hc         1 GEA       0.038867
    128 H642         1.1750     2.5300   -10.8880 hc         1 GEA       0.038867
    129 H643         1.0570     0.8350   -11.3540 hc         1 GEA       0.038867
    130 H651         1.7770     1.2830    -6.3170 hn         1 GEA       0.355500
    131 H731         7.5820     1.7230    -5.5360 hc         1 GEA       0.062033
    132 H732         6.8130     1.5960    -7.1160 hc         1 GEA       0.062033
    133 H733         6.5040     2.9970    -6.1010 hc         1 GEA       0.062033
    134 H741         3.4440    -0.7440    -2.1710 h1         1 GEA       0.077700
    135 H751         3.7140    -3.1060    -2.3100 hc         1 GEA       0.068700
    136 H752         5.1690    -2.3530    -2.8860 hc         1 GEA       0.068700
    137 H781         4.5490    -4.9690    -3.4540 hn         1 GEA       0.312500
    138 H791         4.5390    -6.4610    -5.1630 h1         1 GEA       0.043700
    139 H792         3.2650    -5.5140    -5.9340 h1         1 GEA       0.043700
    140 H793         4.9620    -5.1460    -6.2620 h1         1 GEA       0.043700
    141 H801         1.8270    -1.2500    -4.5400 hn         1 GEA       0.338500
    142 H841         1.7360    -3.1280    -1.1350 h4         1 GEA       0.183000
@<TRIPOS>BOND
     1     1     2 1   
     2     1    88 1   
     3     1    89 1   
     4     2     3 2   
     5     2     4 1   
     6     4     5 1   
     7     4     8 1   
     8     4    90 1   
     9     5     6 1   
    10     5    91 1   
    11     5    92 1   
    12     6     7 1   
    13     6    93 1   
    14     6    94 1   
    15     7     8 1   
    16     7    95 1   
    17     7    96 1   
    18     8     9 1   
    19     9    10 2   
    20     9    11 1   
    21    11    12 1   
    22    11    15 1   
    23    11    97 1   
    24    12    13 1   
    25    12    98 1   
    26    12    99 1   
    27    13    14 1   
    28    14    15 2   
    29    14    16 1   
    30    16    17 2   
    31    16    20 1   
    32    17    18 1   
    33    17   100 1   
    34    18    19 1   
    35    19    20 2   
    36    19    21 1   
    37    21    22 ar  
    38    21    26 ar  
    39    22    23 ar  
    40    22   101 1   
    41    23    24 ar  
    42    23   102 1   
    43    24    25 ar  
    44    24    86 1   
    45    25    26 ar  
    46    25    27 1   
    47    27    28 2   
    48    27    31 1   
    49    28    29 1   
    50    28   103 1   
    51    29    30 1   
    52    30    31 2   
    53    30    32 1   
    54    32    33 2   
    55    32    36 1   
    56    33    34 1   
    57    33   104 1   
    58    34    35 1   
    59    35    36 2   
    60    35    37 1   
    61    37    38 1   
    62    37    46 1   
    63    37   105 1   
    64    38    39 1   
    65    38    40 1   
    66    38   106 1   
    67    39   107 1   
    68    40    41 ar  
    69    40    45 ar  
    70    41    42 ar  
    71    41   108 1   
    72    42    43 ar  
    73    42   109 1   
    74    43    44 ar  
    75    43   110 1   
    76    44    45 ar  
    77    44   111 1   
    78    45   112 1   
    79    46    47 1   
    80    46   113 1   
    81    47    48 2   
    82    47    49 1   
    83    49    50 1   
    84    49   114 1   
    85    49   115 1   
    86    50    51 1   
    87    50   116 1   
    88    51    52 2   
    89    51    53 1   
    90    53    54 2   
    91    53    57 1   
    92    54    55 1   
    93    54    58 1   
    94    55    56 1   
    95    56    57 2   
    96    56    61 1   
    97    58    59 1   
    98    58   117 1   
    99    58   118 1   
   100    59    60 1   
   101    60   119 1   
   102    60   120 1   
   103    60   121 1   
   104    61    62 1   
   105    61    65 1   
   106    61   122 1   
   107    62    63 1   
   108    62    64 1   
   109    62   123 1   
   110    63   124 1   
   111    63   125 1   
   112    63   126 1   
   113    64   127 1   
   114    64   128 1   
   115    64   129 1   
   116    65    66 1   
   117    65   130 1   
   118    66    67 2   
   119    66    68 1   
   120    68    69 2   
   121    68    72 1   
   122    69    70 1   
   123    69    73 1   
   124    70    71 1   
   125    71    72 2   
   126    71    74 1   
   127    73   131 1   
   128    73   132 1   
   129    73   133 1   
   130    74    75 1   
   131    74    80 1   
   132    74   134 1   
   133    75    76 1   
   134    75   135 1   
   135    75   136 1   
   136    76    77 2   
   137    76    78 1   
   138    78    79 1   
   139    78   137 1   
   140    79   138 1   
   141    79   139 1   
   142    79   140 1   
   143    80    81 1   
   144    80   141 1   
   145    81    82 2   
   146    81    83 1   
   147    83    84 2   
   148    83    87 1   
   149    84    85 1   
   150    84   142 1   
   151    85    86 1   
   152    86    87 2   
@<TRIPOS>SUBSTRUCTURE
     1 GEA         1 TEMP              0 ****  ****    0 ROOT
