@<TRIPOS>MOLECULE
GEB
   32    32     1     0     0
SMALL
abcg2


@<TRIPOS>ATOM
      1 C32         -4.3790     1.2950    -0.2710 c          1 GEB       0.571900
      2 C33         -3.5760     0.2620     0.4520 c3         1 GEB      -0.206400
      3 C34         -2.3330    -0.1480    -0.3430 c3         1 GEB       0.179800
      4 C35         -0.6310    -0.4020     1.3800 c6         1 GEB       0.147550
      5 C36          0.6040     0.2230     0.7410 c6         1 GEB       0.147550
      6 C37          2.5500    -0.2390    -0.6150 c3         1 GEB       0.179800
      7 C38          3.5910     0.2040     0.4110 c3         1 GEB      -0.206400
      8 C39          4.9250     0.4130    -0.2350 c          1 GEB       0.571900
      9 C43          0.5000    -1.3940    -1.0120 c6         1 GEB       0.147550
     10 C44         -0.7350    -2.0030    -0.3630 c6         1 GEB       0.147550
     11 N16         -1.5080    -1.0610     0.4280 n3         1 GEB      -0.719100
     12 N17          1.3490    -0.7740    -0.0090 n3         1 GEB      -0.719100
     13 O6          -5.5620     1.2240    -0.5000 o          1 GEB      -0.510600
     14 O7           5.6250     1.3840    -0.0840 o          1 GEB      -0.510600
     15 H1          -3.7990     2.1800    -0.5920 h4         1 GEB      -0.021300
     16 H2          -3.2640     0.7260     1.3960 hc         1 GEB       0.075450
     17 H3          -4.1890    -0.6070     0.6900 hc         1 GEB       0.075450
     18 H4          -2.6500    -0.6570    -1.2560 h1         1 GEB       0.033700
     19 H5          -1.7980     0.7550    -0.6710 h1         1 GEB       0.033700
     20 H6          -0.3090    -1.1400     2.1210 h1         1 GEB       0.048325
     21 H7          -1.1830     0.3640     1.9280 h1         1 GEB       0.048325
     22 H8           0.3130     1.0750     0.1020 h1         1 GEB       0.048325
     23 H9           1.2280     0.6310     1.5380 h1         1 GEB       0.048325
     24 H10          2.3280     0.5980    -1.2980 h1         1 GEB       0.033700
     25 H11          2.9880    -1.0310    -1.2300 h1         1 GEB       0.033700
     26 H12          3.3010     1.1070     0.9480 hc         1 GEB       0.075450
     27 H13          3.7150    -0.6030     1.1430 hc         1 GEB       0.075450
     28 H14          5.2550    -0.4230    -0.8800 h4         1 GEB      -0.021300
     29 H15          1.0640    -2.1850    -1.5140 h1         1 GEB       0.048325
     30 H16          0.2000    -0.6750    -1.7960 h1         1 GEB       0.048325
     31 H17         -1.3750    -2.4460    -1.1290 h1         1 GEB       0.048325
     32 H18         -0.4160    -2.8170     0.2960 h1         1 GEB       0.048325
@<TRIPOS>BOND
     1     1     2 1   
     2     1    13 2   
     3     1    15 1   
     4     2     3 1   
     5     2    16 1   
     6     2    17 1   
     7     3    11 1   
     8     3    18 1   
     9     3    19 1   
    10     4     5 1   
    11     4    11 1   
    12     4    20 1   
    13     4    21 1   
    14     5    12 1   
    15     5    22 1   
    16     5    23 1   
    17     6     7 1   
    18     6    12 1   
    19     6    24 1   
    20     6    25 1   
    21     7     8 1   
    22     7    26 1   
    23     7    27 1   
    24     8    14 2   
    25     8    28 1   
    26     9    10 1   
    27     9    12 1   
    28     9    29 1   
    29     9    30 1   
    30    10    11 1   
    31    10    31 1   
    32    10    32 1   
@<TRIPOS>SUBSTRUCTURE
     1 GEB         1 TEMP              0 ****  ****    0 ROOT
