@<TRIPOS>MOLECULE
GEB
   32    32     1     0     0
SMALL
No Charge or Current Charge


@<TRIPOS>ATOM
      1 C32         -4.2080     1.4810    -0.4130 c          1 GEB       0.571900
      2 C33         -3.3680     0.5920     0.4960 c3         1 GEB      -0.206400
      3 C34         -2.3640    -0.2220    -0.3400 c3         1 GEB       0.179800
      4 C35         -0.7020    -0.6710     1.4960 c6         1 GEB       0.147550
      5 C36          0.5540     0.0450     0.8970 c6         1 GEB       0.147550
      6 C37          2.5390    -0.2180    -0.6050 c3         1 GEB       0.179800
      7 C38          3.5980     0.2090     0.4260 c3         1 GEB      -0.206400
      8 C39          4.8690     0.6580    -0.2840 c          1 GEB       0.571900
      9 C43          0.4480    -1.4590    -1.0470 c6         1 GEB       0.147550
     10 C44         -0.8070    -2.1550    -0.4240 c6         1 GEB       0.147550
     11 N16         -1.6080    -1.2340     0.4430 n3         1 GEB      -0.719100
     12 N17          1.3430    -0.8550    -0.0090 n3         1 GEB      -0.719100
     13 O6          -5.2130     1.0870    -0.9960 o          1 GEB      -0.510600
     14 O7           5.0310     1.7940    -0.7170 o          1 GEB      -0.510600
     15 H1          -3.8530     2.5290    -0.5230 h4         1 GEB      -0.021300
     16 H2          -2.8060     1.2390     1.1770 hc         1 GEB       0.075450
     17 H3          -4.0210    -0.0960     1.0440 hc         1 GEB       0.075450
     18 H4          -2.9300    -0.7380    -1.1280 h1         1 GEB       0.033700
     19 H5          -1.6790     0.4720    -0.8440 h1         1 GEB       0.033700
     20 H6          -0.3460    -1.4860     2.1440 h1         1 GEB       0.048325
     21 H7          -1.2360     0.0260     2.1560 h1         1 GEB       0.048325
     22 H8           0.2290     0.9450     0.3550 h1         1 GEB       0.048325
     23 H9           1.1740     0.3880     1.7380 h1         1 GEB       0.048325
     24 H10          2.2440     0.6590    -1.1980 h1         1 GEB       0.033700
     25 H11          3.0130    -0.9290    -1.2970 h1         1 GEB       0.033700
     26 H12          3.2160     1.0350     1.0350 hc         1 GEB       0.075450
     27 H13          3.8330    -0.6670     1.0410 hc         1 GEB       0.075450
     28 H14          5.6600    -0.1170    -0.3930 h4         1 GEB      -0.021300
     29 H15          1.0010    -2.2070    -1.6340 h1         1 GEB       0.048325
     30 H16          0.1120    -0.6880    -1.7560 h1         1 GEB       0.048325
     31 H17         -1.4300    -2.5660    -1.2320 h1         1 GEB       0.048325
     32 H18         -0.4620    -3.0140     0.1700 h1         1 GEB       0.048325
@<TRIPOS>BOND
     1     1     2 1   
     2     1    13 2   
     3     1    15 1   
     4     2     3 1   
     5     2    16 1   
     6     2    17 1   
     7     3    11 1   
     8     3    18 1   
     9     3    19 1   
    10     4     5 1   
    11     4    11 1   
    12     4    20 1   
    13     4    21 1   
    14     5    12 1   
    15     5    22 1   
    16     5    23 1   
    17     6     7 1   
    18     6    12 1   
    19     6    24 1   
    20     6    25 1   
    21     7     8 1   
    22     7    26 1   
    23     7    27 1   
    24     8    14 2   
    25     8    28 1   
    26     9    10 1   
    27     9    12 1   
    28     9    29 1   
    29     9    30 1   
    30    10    11 1   
    31    10    31 1   
    32    10    32 1   
@<TRIPOS>SUBSTRUCTURE
     1 GEB         1 TEMP              0 ****  ****    0 ROOT
