@<TRIPOS>MOLECULE
GEC
   48    51     1     0     0
SMALL
bcc


@<TRIPOS>ATOM
      1 CAY        -69.0050    36.8700    -5.9990 c3         1 GEC       0.122200
      2 OAC        -69.2080    35.5410    -5.5690 os         1 GEC      -0.296900
      3 CAS        -70.4730    35.1260    -5.3620 ca         1 GEC       0.108600
      4 CAO        -71.6070    35.8980    -5.5550 ca         1 GEC      -0.170500
      5 CAW        -70.6120    33.8000    -4.9120 ca         1 GEC       0.115100
      6 OAE        -69.4800    33.0900    -4.7390 oh         1 GEC      -0.474600
      7 CAU        -71.8790    33.3020    -4.6640 ca         1 GEC      -0.200000
      8 CAQ        -73.0090    34.0900    -4.8560 ca         1 GEC      -0.103500
      9 CAM        -72.8880    35.3960    -5.3030 ca         1 GEC      -0.095800
     10 CAI        -74.0750    36.2830    -5.5980 c5         1 GEC       0.193400
     11 OAA        -74.4870    36.1440    -6.9550 os         1 GEC      -0.393600
     12 CAK        -75.3820    35.0520    -7.0040 c5         1 GEC       0.130400
     13 CAH        -76.2280    35.1730    -5.7420 c5         1 GEC      -0.129700
     14 CAG        -75.3370    35.9840    -4.7800 c5         1 GEC      -0.129700
     15 CAL        -76.1920    37.2220    -4.4700 c5         1 GEC       0.130400
     16 OAB        -77.5250    36.8490    -4.7400 os         1 GEC      -0.393600
     17 CAJ        -77.4780    36.0630    -5.9100 c5         1 GEC       0.193400
     18 CAN        -78.7570    35.3000    -6.0890 ca         1 GEC      -0.095800
     19 CAP        -79.3040    35.1710    -7.3650 ca         1 GEC      -0.170500
     20 CAR        -79.3800    34.6710    -5.0230 ca         1 GEC      -0.103500
     21 CAV        -80.5320    33.9210    -5.2320 ca         1 GEC      -0.200000
     22 CAX        -81.0750    33.7830    -6.5000 ca         1 GEC       0.115100
     23 OAF        -82.1870    33.0670    -6.7640 oh         1 GEC      -0.474600
     24 CAT        -80.4500    34.4190    -7.5860 ca         1 GEC       0.108600
     25 OAD        -81.0410    34.2450    -8.7840 os         1 GEC      -0.296900
     26 CAZ        -80.4600    34.8670    -9.9100 c3         1 GEC       0.122200
     27 H1         -67.9300    37.0050    -6.0910 h1         1 GEC       0.040033
     28 H2         -69.4680    37.0620    -6.9710 h1         1 GEC       0.040033
     29 H3         -69.3910    37.5970    -5.2780 h1         1 GEC       0.040033
     30 H4         -71.5140    36.9210    -5.9000 ha         1 GEC       0.137500
     31 H5         -69.6910    32.2000    -4.4340 ho         1 GEC       0.420500
     32 H6         -71.9900    32.2820    -4.3120 ha         1 GEC       0.133000
     33 H7         -73.9790    33.6590    -4.6400 ha         1 GEC       0.137500
     34 H8         -73.7620    37.3250    -5.4770 h1         1 GEC       0.063700
     35 H9         -75.9630    35.1220    -7.9260 h1         1 GEC       0.052700
     36 H10        -74.8440    34.0960    -7.0210 h1         1 GEC       0.052700
     37 H11        -76.5010    34.1970    -5.3390 hc         1 GEC       0.078200
     38 H12        -75.1120    35.4430    -3.8620 hc         1 GEC       0.078200
     39 H13        -76.1240    37.5410    -3.4290 h1         1 GEC       0.052700
     40 H14        -75.8910    38.0680    -5.1030 h1         1 GEC       0.052700
     41 H15        -77.3260    36.7150    -6.7860 h1         1 GEC       0.063700
     42 H16        -78.8170    35.6750    -8.1910 ha         1 GEC       0.137500
     43 H17        -78.9810    34.7540    -4.0210 ha         1 GEC       0.137500
     44 H18        -81.0170    33.4350    -4.3920 ha         1 GEC       0.133000
     45 H19        -82.5300    32.6800    -5.9510 ho         1 GEC       0.420500
     46 H20        -81.0820    34.6060   -10.7630 h1         1 GEC       0.040033
     47 H21        -80.4370    35.9560    -9.8110 h1         1 GEC       0.040033
     48 H22        -79.4420    34.5110   -10.0960 h1         1 GEC       0.040033
@<TRIPOS>BOND
     1     1     2 1   
     2     1    27 1   
     3     1    28 1   
     4     1    29 1   
     5     2     3 1   
     6     3     4 ar  
     7     3     5 ar  
     8     4     9 ar  
     9     4    30 1   
    10     5     6 1   
    11     5     7 ar  
    12     6    31 1   
    13     7     8 ar  
    14     7    32 1   
    15     8     9 ar  
    16     8    33 1   
    17     9    10 1   
    18    10    11 1   
    19    10    14 1   
    20    10    34 1   
    21    11    12 1   
    22    12    13 1   
    23    12    35 1   
    24    12    36 1   
    25    13    14 1   
    26    13    17 1   
    27    13    37 1   
    28    14    15 1   
    29    14    38 1   
    30    15    16 1   
    31    15    39 1   
    32    15    40 1   
    33    16    17 1   
    34    17    18 1   
    35    17    41 1   
    36    18    19 ar  
    37    18    20 ar  
    38    19    24 ar  
    39    19    42 1   
    40    20    21 ar  
    41    20    43 1   
    42    21    22 ar  
    43    21    44 1   
    44    22    23 1   
    45    22    24 ar  
    46    23    45 1   
    47    24    25 1   
    48    25    26 1   
    49    26    46 1   
    50    26    47 1   
    51    26    48 1   
@<TRIPOS>SUBSTRUCTURE
     1 GEC         1 TEMP              0 ****  ****    0 ROOT
