@<TRIPOS>MOLECULE
GEC
   48    51     1     0     0
SMALL
No Charge or Current Charge


@<TRIPOS>ATOM
      1 CAY        -68.9080    36.9110    -5.9540 c3         1 GEC       0.145400
      2 OAC        -69.1830    35.5630    -5.5330 os         1 GEC      -0.320100
      3 CAS        -70.4720    35.0900    -5.3390 ca         1 GEC       0.108600
      4 CAO        -71.6070    35.9090    -5.5440 ca         1 GEC      -0.152500
      5 CAW        -70.6500    33.7500    -4.9250 ca         1 GEC       0.115100
      6 OAE        -69.5760    32.9270    -4.7160 oh         1 GEC      -0.513600
      7 CAU        -71.9450    33.2470    -4.7260 ca         1 GEC      -0.182000
      8 CAQ        -73.0660    34.0670    -4.9320 ca         1 GEC      -0.085500
      9 CAM        -72.9140    35.4150    -5.3410 ca         1 GEC      -0.095800
     10 CAI        -74.0980    36.3750    -5.5910 c5         1 GEC       0.216600
     11 OAA        -74.5760    36.2470    -6.9470 os         1 GEC      -0.440000
     12 CAK        -75.4370    35.0920    -7.0020 c5         1 GEC       0.153600
     13 CAH        -76.2560    35.1700    -5.6810 c5         1 GEC      -0.129700
     14 CAG        -75.3350    35.9900    -4.7100 c5         1 GEC      -0.129700
     15 CAL        -76.1490    37.3010    -4.4630 c5         1 GEC       0.153600
     16 OAB        -77.5060    36.9150    -4.7330 os         1 GEC      -0.440000
     17 CAJ        -77.4540    36.1370    -5.9380 c5         1 GEC       0.216600
     18 CAN        -78.7170    35.2930    -6.1170 ca         1 GEC      -0.095800
     19 CAP        -79.2920    35.1530    -7.3970 ca         1 GEC      -0.152500
     20 CAR        -79.3210    34.6420    -5.0210 ca         1 GEC      -0.085500
     21 CAV        -80.4770    33.8640    -5.1980 ca         1 GEC      -0.182000
     22 CAX        -81.0470    33.7260    -6.4740 ca         1 GEC       0.115100
     23 OAF        -82.1740    32.9620    -6.6200 oh         1 GEC      -0.513600
     24 CAT        -80.4560    34.3720    -7.5870 ca         1 GEC       0.108600
     25 OAD        -81.0380    34.2170    -8.8360 os         1 GEC      -0.320100
     26 CAZ        -80.5040    34.8350   -10.0200 c3         1 GEC       0.145400
     27 H1         -67.8260    37.0680    -6.0440 h1         1 GEC       0.040033
     28 H2         -69.3630    37.1140    -6.9330 h1         1 GEC       0.040033
     29 H3         -69.2970    37.6350    -5.2270 h1         1 GEC       0.040033
     30 H4         -71.4920    36.9390    -5.8660 ha         1 GEC       0.119500
     31 H5         -69.9060    32.0470    -4.4370 ho         1 GEC       0.459500
     32 H6         -72.0920    32.2160    -4.4110 ha         1 GEC       0.115000
     33 H7         -74.0510    33.6380    -4.7760 ha         1 GEC       0.119500
     34 H8         -73.7730    37.4110    -5.4200 h1         1 GEC       0.063700
     35 H9         -76.0580    35.1210    -7.9080 h1         1 GEC       0.052700
     36 H10        -74.8180    34.1870    -7.0410 h1         1 GEC       0.052700
     37 H11        -76.5480    34.1900    -5.2880 hc         1 GEC       0.078200
     38 H12        -75.0930    35.4780    -3.7720 hc         1 GEC       0.078200
     39 H13        -76.0600    37.6700    -3.4330 h1         1 GEC       0.052700
     40 H14        -75.8750    38.1130    -5.1530 h1         1 GEC       0.052700
     41 H15        -77.2850    36.8160    -6.7880 h1         1 GEC       0.063700
     42 H16        -78.8180    35.6570    -8.2350 ha         1 GEC       0.119500
     43 H17        -78.8880    34.7390    -4.0270 ha         1 GEC       0.119500
     44 H18        -80.9230    33.3720    -4.3380 ha         1 GEC       0.115000
     45 H19        -82.4250    32.6050    -5.7410 ho         1 GEC       0.459500
     46 H20        -81.1190    34.5800   -10.8920 h1         1 GEC       0.040033
     47 H21        -80.4930    35.9270    -9.9200 h1         1 GEC       0.040033
     48 H22        -79.4810    34.4870   -10.2130 h1         1 GEC       0.040033
@<TRIPOS>BOND
     1     1     2 1   
     2     1    27 1   
     3     1    28 1   
     4     1    29 1   
     5     2     3 1   
     6     3     4 ar  
     7     3     5 ar  
     8     4     9 ar  
     9     4    30 1   
    10     5     6 1   
    11     5     7 ar  
    12     6    31 1   
    13     7     8 ar  
    14     7    32 1   
    15     8     9 ar  
    16     8    33 1   
    17     9    10 1   
    18    10    11 1   
    19    10    14 1   
    20    10    34 1   
    21    11    12 1   
    22    12    13 1   
    23    12    35 1   
    24    12    36 1   
    25    13    14 1   
    26    13    17 1   
    27    13    37 1   
    28    14    15 1   
    29    14    38 1   
    30    15    16 1   
    31    15    39 1   
    32    15    40 1   
    33    16    17 1   
    34    17    18 1   
    35    17    41 1   
    36    18    19 ar  
    37    18    20 ar  
    38    19    24 ar  
    39    19    42 1   
    40    20    21 ar  
    41    20    43 1   
    42    21    22 ar  
    43    21    44 1   
    44    22    23 1   
    45    22    24 ar  
    46    23    45 1   
    47    24    25 1   
    48    25    26 1   
    49    26    46 1   
    50    26    47 1   
    51    26    48 1   
@<TRIPOS>SUBSTRUCTURE
     1 GEC         1 TEMP              0 ****  ****    0 ROOT
