@<TRIPOS>MOLECULE
GED
   96   100     1     0     0
SMALL
abcg2


@<TRIPOS>ATOM
      1 C10         47.2320     4.3610    14.8500 ca         1 GED       0.250000
      2 N12         49.2350     0.8260    13.6770 nh         1 GED      -0.799300
      3 C13         49.8610     1.1070    10.9710 ca         1 GED      -0.337500
      4 C21         51.1120     0.6460    10.5810 ca         1 GED       0.042500
      5 C22         51.8190     1.3040     9.5850 ca         1 GED      -0.198000
      6 C24         50.0140     2.9080     9.3930 ca         1 GED      -0.198000
      7 C28         47.1910     7.8070    12.7710 ca         1 GED       0.014500
      8 C01         46.6510     3.1040    15.1870 ca         1 GED      -0.008000
      9 C02         45.4270     2.9860    15.8890 ca         1 GED      -0.079000
     10 C03         44.9170     1.7560    16.2130 ca         1 GED      -0.097000
     11 C04         45.6000     0.5800    15.8410 ca         1 GED      -0.093000
     12 C05         46.7790     0.6570    15.1460 ca         1 GED      -0.087000
     13 C06         47.3370     1.9110    14.8010 ca         1 GED      -0.015000
     14 C07         48.5590     2.0230    14.0810 ca         1 GED       0.273000
     15 C08         49.0960     3.2490    13.7910 ca         1 GED      -0.103000
     16 C09         48.4290     4.4230    14.1810 ca         1 GED      -0.118000
     17 C18         46.4690     6.6170    12.7200 ca         1 GED      -0.354500
     18 C23         51.2640     2.4320     8.9760 ca         1 GED       0.191100
     19 C25         49.3140     2.2490    10.3830 ca         1 GED       0.042500
     20 C27         53.1470     2.7070     7.5250 c3         1 GED       0.146900
     21 C29         48.1850     8.0540    11.8390 ca         1 GED      -0.175500
     22 C30         48.4720     7.0980    10.8570 ca         1 GED       0.035000
     23 C31         47.6900     5.9390    10.7730 ca         1 GED      -0.175500
     24 C32         46.7030     5.6900    11.7050 ca         1 GED       0.014500
     25 C34         50.7130     7.9120    10.1650 c          1 GED       0.608100
     26 C35         51.8390     7.4990     9.2470 c3         1 GED      -0.159400
     27 C37         52.3920     6.0910     9.5310 c3         1 GED       0.176800
     28 C38         47.3450     6.5880    15.9200 c3         1 GED       0.100800
     29 C39         47.6990     6.2240    17.3570 c          1 GED       0.604100
     30 C42         50.2550     0.2680    14.5460 c3         1 GED       0.147800
     31 C43         51.5910     1.0120    14.5020 c          1 GED       0.581100
     32 C47         54.0530     5.0100    10.9290 c6         1 GED       0.168800
     33 C48         54.3240     4.5220    12.3620 c6         1 GED       0.176800
     34 C50         52.4130     5.6700    13.2760 c6         1 GED       0.176800
     35 C51         51.8940     5.4590    11.8500 c6         1 GED       0.168800
     36 C52         54.4190     5.3980    14.6600 c3         1 GED       0.180800
     37 C53         54.1170     4.0990    15.4150 c3         1 GED      -0.131100
     38 N11         46.5440     5.5730    15.2250 nh         1 GED      -0.748300
     39 N33         49.5380     7.2250     9.9620 ns         1 GED      -0.156000
     40 N40         46.8800     5.3710    17.9830 nt         1 GED      -0.589000
     41 N44         52.3640     0.8250    15.5860 nt         1 GED      -0.605000
     42 N46         52.8940     5.9130    10.8880 n3         1 GED      -0.711600
     43 N49         53.8670     5.5210    13.3170 n3         1 GED      -0.726600
     44 O15         47.5430     0.4630    11.9020 o          1 GED      -0.543500
     45 O16         49.4340    -1.1450    12.1940 o          1 GED      -0.543500
     46 O19         44.6230     5.0540    13.6870 o          1 GED      -0.531500
     47 O20         44.8500     7.3310    14.6680 o          1 GED      -0.531500
     48 O26         51.8550     3.1210     7.9750 os         1 GED      -0.354100
     49 O36         50.8520     8.7570    11.0380 o          1 GED      -0.552100
     50 O41         48.6740     6.7510    17.8860 o          1 GED      -0.614100
     51 O45         51.9290     1.6840    13.5360 o          1 GED      -0.616100
     52 S14         48.9390     0.2120    12.1750 sy         1 GED       1.223600
     53 S17         45.4550     6.1610    14.0810 sy         1 GED       1.179600
     54 H211        51.5340    -0.2340    11.0430 ha         1 GED       0.135000
     55 H221        52.7850     0.9270     9.2840 ha         1 GED       0.122000
     56 H241        49.6050     3.7890     8.9160 ha         1 GED       0.122000
     57 H281        46.9890     8.5380    13.5420 ha         1 GED       0.140500
     58 H021        44.8820     3.8810    16.1490 ha         1 GED       0.121000
     59 H031        43.9830     1.6860    16.7540 ha         1 GED       0.119000
     60 H041        45.1870    -0.3860    16.1010 ha         1 GED       0.119000
     61 H051        47.2970    -0.2430    14.8480 ha         1 GED       0.119000
     62 H081        50.0310     3.3080    13.2540 ha         1 GED       0.145000
     63 H091        48.8680     5.3770    13.9260 ha         1 GED       0.128000
     64 H251        48.3430     2.6100    10.6900 ha         1 GED       0.135000
     65 H273        53.4270     3.4110     6.7470 h1         1 GED       0.048700
     66 H271        53.8730     2.7480     8.3380 h1         1 GED       0.048700
     67 H272        53.1090     1.6960     7.1140 h1         1 GED       0.048700
     68 H291        48.7530     8.9670    11.8840 ha         1 GED       0.136000
     69 H311        47.8930     5.2120     9.9980 ha         1 GED       0.136000
     70 H321        46.1390     4.7690    11.6690 ha         1 GED       0.140500
     71 H351        52.6330     8.2360     9.3610 hc         1 GED       0.077200
     72 H352        51.4890     7.5210     8.2110 hc         1 GED       0.077200
     73 H372        51.6430     5.3320     9.2760 h1         1 GED       0.036200
     74 H371        53.2230     5.9400     8.8400 h1         1 GED       0.036200
     75 H382        48.2780     6.8120    15.4030 h1         1 GED       0.086700
     76 H381        46.7630     7.5080    15.9700 h1         1 GED       0.086700
     77 H422        49.8640     0.2480    15.5650 h1         1 GED       0.084700
     78 H421        50.4410    -0.7650    14.2530 h1         1 GED       0.084700
     79 H471        53.8920     4.1300    10.2880 h1         1 GED       0.030450
     80 H481        53.8440     3.5450    12.5220 h1         1 GED       0.038950
     81 H501        52.1620     6.6770    13.6210 h1         1 GED       0.038950
     82 H511        50.9680     6.0140    11.7310 h1         1 GED       0.030450
     83 H521        55.5040     5.5190    14.5830 h1         1 GED       0.051700
     84 H522        54.0460     6.2470    15.2410 h1         1 GED       0.051700
     85 H533        54.5470     4.1450    16.4190 hc         1 GED       0.033367
     86 H532        53.0440     3.9290    15.5170 hc         1 GED       0.033367
     87 H531        54.5480     3.2360    14.9040 hc         1 GED       0.033367
     88 H331        49.5670     6.5230     9.2360 hn         1 GED       0.149000
     89 H401        47.0470     5.1310    18.9480 hn         1 GED       0.323000
     90 H402        46.0740     4.9880    17.5180 hn         1 GED       0.323000
     91 H442        53.2910     1.2200    15.6130 hn         1 GED       0.320500
     92 H441        52.0540     0.2780    16.3730 hn         1 GED       0.320500
     93 H3          55.3970     4.3710    12.4960 h1         1 GED       0.038950
     94 H4          54.9180     5.5500    10.5370 h1         1 GED       0.030450
     95 H2          51.6420     4.4000    11.6820 h1         1 GED       0.030450
     96 H1          51.8950     4.9600    13.9370 h1         1 GED       0.038950
@<TRIPOS>BOND
     1     1     8 ar  
     2     1    16 ar  
     3     1    38 1   
     4     2    14 1   
     5     2    30 1   
     6     2    52 1   
     7     3     4 ar  
     8     3    19 ar  
     9     3    52 1   
    10     4     5 ar  
    11     4    54 1   
    12     5    18 ar  
    13     5    55 1   
    14     6    18 ar  
    15     6    19 ar  
    16     6    56 1   
    17     7    17 ar  
    18     7    21 ar  
    19     7    57 1   
    20     8     9 ar  
    21     8    13 ar  
    22     9    10 ar  
    23     9    58 1   
    24    10    11 ar  
    25    10    59 1   
    26    11    12 ar  
    27    11    60 1   
    28    12    13 ar  
    29    12    61 1   
    30    13    14 ar  
    31    14    15 ar  
    32    15    16 ar  
    33    15    62 1   
    34    16    63 1   
    35    17    24 ar  
    36    17    53 1   
    37    18    48 1   
    38    19    64 1   
    39    20    48 1   
    40    20    65 1   
    41    20    66 1   
    42    20    67 1   
    43    21    22 ar  
    44    21    68 1   
    45    22    23 ar  
    46    22    39 1   
    47    23    24 ar  
    48    23    69 1   
    49    24    70 1   
    50    25    26 1   
    51    25    39 1   
    52    25    49 2   
    53    26    27 1   
    54    26    71 1   
    55    26    72 1   
    56    27    42 1   
    57    27    73 1   
    58    27    74 1   
    59    28    29 1   
    60    28    38 1   
    61    28    75 1   
    62    28    76 1   
    63    29    40 1   
    64    29    50 2   
    65    30    31 1   
    66    30    77 1   
    67    30    78 1   
    68    31    41 1   
    69    31    51 2   
    70    32    33 1   
    71    32    42 1   
    72    32    79 1   
    73    32    94 1   
    74    33    43 1   
    75    33    80 1   
    76    33    93 1   
    77    34    35 1   
    78    34    43 1   
    79    34    81 1   
    80    34    96 1   
    81    35    42 1   
    82    35    82 1   
    83    35    95 1   
    84    36    37 1   
    85    36    43 1   
    86    36    83 1   
    87    36    84 1   
    88    37    85 1   
    89    37    86 1   
    90    37    87 1   
    91    38    53 1   
    92    39    88 1   
    93    40    89 1   
    94    40    90 1   
    95    41    91 1   
    96    41    92 1   
    97    44    52 2   
    98    45    52 2   
    99    46    53 2   
   100    47    53 2   
@<TRIPOS>SUBSTRUCTURE
     1 GED         1 TEMP              0 ****  ****    0 ROOT
