@<TRIPOS>MOLECULE
GED
   96   100     1     0     0
SMALL
No Charge or Current Charge


@<TRIPOS>ATOM
      1 C10         46.4160     3.9200    14.7330 ca         1 GED       0.250000
      2 N12         47.9300    -0.0280    14.3430 nh         1 GED      -0.799300
      3 C13         48.4480     0.2830    11.7310 ca         1 GED      -0.337500
      4 C21         49.8480     0.3270    11.6040 ca         1 GED       0.042500
      5 C22         50.4420     1.2260    10.7020 ca         1 GED      -0.198000
      6 C24         48.2410     2.0290    10.0530 ca         1 GED      -0.198000
      7 C28         47.5260     7.4490    12.7590 ca         1 GED       0.014500
      8 C01         45.5790     2.8250    15.0730 ca         1 GED      -0.008000
      9 C02         44.2690     3.0430    15.5660 ca         1 GED      -0.079000
     10 C03         43.4490     1.9640    15.9270 ca         1 GED      -0.097000
     11 C04         43.9240     0.6530    15.8070 ca         1 GED      -0.093000
     12 C05         45.2200     0.4180    15.3220 ca         1 GED      -0.087000
     13 C06         46.0610     1.4930    14.9440 ca         1 GED      -0.015000
     14 C07         47.3760     1.2610    14.4580 ca         1 GED       0.273000
     15 C08         48.1960     2.3580    14.1510 ca         1 GED      -0.103000
     16 C09         47.7250     3.6700    14.2910 ca         1 GED      -0.118000
     17 C18         46.7430     6.2990    12.5460 ca         1 GED      -0.354500
     18 C23         49.6370     2.0790     9.9190 ca         1 GED       0.191100
     19 C25         47.6410     1.1390    10.9580 ca         1 GED       0.042500
     20 C27         51.5800     3.0670     8.7660 c3         1 GED       0.146900
     21 C29         48.6770     7.6730    11.9850 ca         1 GED      -0.175500
     22 C30         49.0570     6.7530    10.9840 ca         1 GED       0.035000
     23 C31         48.2550     5.6190    10.7670 ca         1 GED      -0.175500
     24 C32         47.1080     5.3830    11.5420 ca         1 GED       0.014500
     25 C34         51.2850     7.7820    10.2350 c          1 GED       0.608100
     26 C35         52.2880     7.6200     9.0920 c3         1 GED      -0.159400
     27 C37         53.3680     6.5420     9.3400 c3         1 GED       0.176800
     28 C38         46.6410     6.1290    15.9360 c3         1 GED       0.100800
     29 C39         47.2040     5.4240    17.1990 c          1 GED       0.604100
     30 C42         48.4300    -0.7630    15.5460 c3         1 GED       0.147800
     31 C43         49.9730    -0.8160    15.7380 c          1 GED       0.581100
     32 C47         55.7220     6.2170    10.0450 c6         1 GED       0.168800
     33 C48         56.8110     6.3800    11.1660 c6         1 GED       0.176800
     34 C50         55.0920     7.0360    12.8160 c6         1 GED       0.176800
     35 C51         54.0190     6.5740    11.7660 c6         1 GED       0.168800
     36 C52         57.4930     7.6830    13.2070 c3         1 GED       0.180800
     37 C53         57.9500     6.5040    14.0960 c3         1 GED      -0.131100
     38 N11         45.9980     5.2560    14.9040 nh         1 GED      -0.748300
     39 N33         50.2040     6.9140    10.1640 ns         1 GED      -0.156000
     40 N40         46.3060     4.7590    17.9620 nt         1 GED      -0.589000
     41 N44         50.6610    -1.6240    14.8990 nt         1 GED      -0.605000
     42 N46         54.4040     6.8700    10.3480 n3         1 GED      -0.711600
     43 N49         56.4280     7.3670    12.2210 n3         1 GED      -0.726600
     44 O15         46.2530    -0.9390    12.6360 o          1 GED      -0.543500
     45 O16         48.5270    -2.0770    12.9530 o          1 GED      -0.543500
     46 O19         44.4280     5.0150    12.8950 o          1 GED      -0.531500
     47 O20         44.7520     7.2990    14.0120 o          1 GED      -0.531500
     48 O26         50.1660     2.9730     9.0110 os         1 GED      -0.354100
     49 O36         51.4320     8.6270    11.1100 o          1 GED      -0.552100
     50 O41         48.3830     5.4430    17.5190 o          1 GED      -0.614100
     51 O45         50.5730    -0.1780    16.5920 o          1 GED      -0.616100
     52 S14         47.6970    -0.8700    12.8800 sy         1 GED       1.223600
     53 S17         45.2810     6.0100    13.5520 sy         1 GED       1.179600
     54 H211        50.4800    -0.3280    12.2010 ha         1 GED       0.135000
     55 H221        51.5250     1.2410    10.6230 ha         1 GED       0.122000
     56 H241        47.6180     2.6810     9.4480 ha         1 GED       0.122000
     57 H281        47.2500     8.1740    13.5240 ha         1 GED       0.140500
     58 H021        43.8760     4.0500    15.6730 ha         1 GED       0.121000
     59 H031        42.4440     2.1470    16.3030 ha         1 GED       0.119000
     60 H041        43.2900    -0.1840    16.0910 ha         1 GED       0.119000
     61 H051        45.5610    -0.6100    15.2430 ha         1 GED       0.119000
     62 H081        49.2130     2.1850    13.8130 ha         1 GED       0.145000
     63 H091        48.3840     4.5020    14.0570 ha         1 GED       0.128000
     64 H251        46.5560     1.1190    11.0490 ha         1 GED       0.135000
     65 H273        51.7850     3.8360     8.0100 h1         1 GED       0.048700
     66 H271        52.1180     3.3390     9.6830 h1         1 GED       0.048700
     67 H272        51.9760     2.1130     8.3960 h1         1 GED       0.048700
     68 H291        49.2520     8.5730    12.1730 ha         1 GED       0.136000
     69 H311        48.5280     4.9090     9.9920 ha         1 GED       0.136000
     70 H321        46.5130     4.4890    11.3600 ha         1 GED       0.140500
     71 H351        52.7830     8.5790     8.8980 hc         1 GED       0.077200
     72 H352        51.7440     7.2870     8.2010 hc         1 GED       0.077200
     73 H372        52.8810     5.5900     9.5920 h1         1 GED       0.036200
     74 H371        53.8610     6.3850     8.3700 h1         1 GED       0.036200
     75 H382        47.4750     6.6860    15.4900 h1         1 GED       0.086700
     76 H381        45.9140     6.8630    16.3050 h1         1 GED       0.086700
     77 H422        48.0200    -0.3030    16.4540 h1         1 GED       0.084700
     78 H421        48.0680    -1.8000    15.5400 h1         1 GED       0.084700
     79 H471        55.5790     5.1410     9.8650 h1         1 GED       0.030450
     80 H481        56.9740     5.3920    11.6230 h1         1 GED       0.038950
     81 H501        54.7030     7.9200    13.3420 h1         1 GED       0.038950
     82 H511        53.0610     7.0330    12.0360 h1         1 GED       0.030450
     83 H521        58.3750     8.0670    12.6760 h1         1 GED       0.051700
     84 H522        57.1510     8.4930    13.8660 h1         1 GED       0.051700
     85 H533        58.7430     6.8380    14.7770 hc         1 GED       0.033367
     86 H532        57.1260     6.1190    14.7070 hc         1 GED       0.033367
     87 H531        58.3530     5.6830    13.4910 hc         1 GED       0.033367
     88 H331        50.2400     6.2690     9.3850 hn         1 GED       0.149000
     89 H401        46.6190     4.2750    18.7890 hn         1 GED       0.323000
     90 H402        45.3400     4.7200    17.6740 hn         1 GED       0.323000
     91 H442        51.6640    -1.6900    14.9800 hn         1 GED       0.320500
     92 H441        50.1620    -2.1230    14.1730 hn         1 GED       0.320500
     93 H3          57.7610     6.6700    10.6940 h1         1 GED       0.038950
     94 H4          56.1250     6.6370     9.1110 h1         1 GED       0.030450
     95 H2          53.8790     5.4890    11.8810 h1         1 GED       0.030450
     96 H1          55.1830     6.2400    13.5690 h1         1 GED       0.038950
@<TRIPOS>BOND
     1     1     8 ar  
     2     1    16 ar  
     3     1    38 1   
     4     2    14 1   
     5     2    30 1   
     6     2    52 1   
     7     3     4 ar  
     8     3    19 ar  
     9     3    52 1   
    10     4     5 ar  
    11     4    54 1   
    12     5    18 ar  
    13     5    55 1   
    14     6    18 ar  
    15     6    19 ar  
    16     6    56 1   
    17     7    17 ar  
    18     7    21 ar  
    19     7    57 1   
    20     8     9 ar  
    21     8    13 ar  
    22     9    10 ar  
    23     9    58 1   
    24    10    11 ar  
    25    10    59 1   
    26    11    12 ar  
    27    11    60 1   
    28    12    13 ar  
    29    12    61 1   
    30    13    14 ar  
    31    14    15 ar  
    32    15    16 ar  
    33    15    62 1   
    34    16    63 1   
    35    17    24 ar  
    36    17    53 1   
    37    18    48 1   
    38    19    64 1   
    39    20    48 1   
    40    20    65 1   
    41    20    66 1   
    42    20    67 1   
    43    21    22 ar  
    44    21    68 1   
    45    22    23 ar  
    46    22    39 1   
    47    23    24 ar  
    48    23    69 1   
    49    24    70 1   
    50    25    26 1   
    51    25    39 1   
    52    25    49 2   
    53    26    27 1   
    54    26    71 1   
    55    26    72 1   
    56    27    42 1   
    57    27    73 1   
    58    27    74 1   
    59    28    29 1   
    60    28    38 1   
    61    28    75 1   
    62    28    76 1   
    63    29    40 1   
    64    29    50 2   
    65    30    31 1   
    66    30    77 1   
    67    30    78 1   
    68    31    41 1   
    69    31    51 2   
    70    32    33 1   
    71    32    42 1   
    72    32    79 1   
    73    32    94 1   
    74    33    43 1   
    75    33    80 1   
    76    33    93 1   
    77    34    35 1   
    78    34    43 1   
    79    34    81 1   
    80    34    96 1   
    81    35    42 1   
    82    35    82 1   
    83    35    95 1   
    84    36    37 1   
    85    36    43 1   
    86    36    83 1   
    87    36    84 1   
    88    37    85 1   
    89    37    86 1   
    90    37    87 1   
    91    38    53 1   
    92    39    88 1   
    93    40    89 1   
    94    40    90 1   
    95    41    91 1   
    96    41    92 1   
    97    44    52 2   
    98    45    52 2   
    99    46    53 2   
   100    47    53 2   
@<TRIPOS>SUBSTRUCTURE
     1 GED         1 TEMP              0 ****  ****    0 ROOT
