@<TRIPOS>MOLECULE
GEE
   16    15     1     0     0
SMALL
bcc


@<TRIPOS>ATOM
      1 C           11.6710    22.8760     0.0700 c          1 GEE       0.638100
      2 N           11.5050    22.8660     2.5060 n8         1 GEE      -0.870800
      3 O           12.1270    23.9900     0.0670 o          1 GEE      -0.517000
      4 C1          11.7580    22.7590    -2.2960 c3         1 GEE       0.146400
      5 O1          11.4380    22.1680    -1.0280 os         1 GEE      -0.437900
      6 C2          11.3940    21.7660    -3.3730 c3         1 GEE      -0.097100
      7 CA          11.3070    22.0870     1.3060 c3         1 GEE       0.090800
      8 H           11.1370    22.3510     3.2940 hn         1 GEE       0.349300
      9 H2          12.4940    22.9820     2.6850 hn         1 GEE       0.349300
     10 H1A         11.2000    23.6900    -2.4210 h1         1 GEE       0.048200
     11 H1B         12.8220    23.0010    -2.3320 h1         1 GEE       0.048200
     12 H2A         11.6260    22.1940    -4.3480 hc         1 GEE       0.046033
     13 H2B         11.9580    20.8390    -3.2730 hc         1 GEE       0.046033
     14 H2C         10.3300    21.5300    -3.3580 hc         1 GEE       0.046033
     15 HA2         10.2520    21.8100     1.2270 h1         1 GEE       0.057200
     16 HA3         11.8640    21.1400     1.2660 h1         1 GEE       0.057200
@<TRIPOS>BOND
     1     1     3 2   
     2     1     5 1   
     3     1     7 1   
     4     2     7 1   
     5     2     8 1   
     6     2     9 1   
     7     4     5 1   
     8     4     6 1   
     9     4    10 1   
    10     4    11 1   
    11     6    12 1   
    12     6    13 1   
    13     6    14 1   
    14     7    15 1   
    15     7    16 1   
@<TRIPOS>SUBSTRUCTURE
     1 GEE         1 TEMP              0 ****  ****    0 ROOT
