@<TRIPOS>MOLECULE
GEE
   16    15     1     0     0
SMALL
No Charge or Current Charge


@<TRIPOS>ATOM
      1 C           11.7520    22.8780     0.0560 c          1 GEE       0.638100
      2 N           11.3450    22.8440     2.6490 n8         1 GEE      -0.870800
      3 O           12.2960    23.9790     0.0580 o          1 GEE      -0.517000
      4 C1          11.7780    22.7590    -2.3530 c3         1 GEE       0.146400
      5 O1          11.4510    22.1710    -1.0830 os         1 GEE      -0.437900
      6 C2          11.3380    21.7720    -3.4450 c3         1 GEE      -0.097100
      7 CA          11.3380    22.0940     1.3430 c3         1 GEE       0.090800
      8 H           11.1480    22.1950     3.4190 hn         1 GEE       0.349300
      9 H2          12.2940    23.1870     2.8390 hn         1 GEE       0.349300
     10 H1A         11.2540    23.7150    -2.4890 h1         1 GEE       0.048200
     11 H1B         12.8590    22.9390    -2.4350 h1         1 GEE       0.048200
     12 H2A         11.5680    22.1780    -4.4370 hc         1 GEE       0.046033
     13 H2B         11.8620    20.8150    -3.3350 hc         1 GEE       0.046033
     14 H2C         10.2580    21.5910    -3.3900 hc         1 GEE       0.046033
     15 HA2         10.3270    21.7010     1.1720 h1         1 GEE       0.057200
     16 HA3         12.0150    21.2320     1.4240 h1         1 GEE       0.057200
@<TRIPOS>BOND
     1     1     3 2   
     2     1     5 1   
     3     1     7 1   
     4     2     7 1   
     5     2     8 1   
     6     2     9 1   
     7     4     5 1   
     8     4     6 1   
     9     4    10 1   
    10     4    11 1   
    11     6    12 1   
    12     6    13 1   
    13     6    14 1   
    14     7    15 1   
    15     7    16 1   
@<TRIPOS>SUBSTRUCTURE
     1 GEE         1 TEMP              0 ****  ****    0 ROOT
