@<TRIPOS>MOLECULE
GEG
   19    18     1     0     0
SMALL
bcc


@<TRIPOS>ATOM
      1 C1          -0.2650     0.0650    -2.1890 c          1 GEG       0.927600
      2 O1          -0.2260     1.2930    -2.3970 o          1 GEG      -0.845300
      3 O2          -0.2800    -0.8330    -3.0580 o          1 GEG      -0.845300
      4 C6          -0.3000    -0.4180    -0.7280 c3         1 GEG      -0.205400
      5 C2          -0.2620     0.6820     0.3300 c3         1 GEG      -0.036200
      6 C3          -0.3820     0.1230     1.7220 c2         1 GEG       0.103800
      7 C4           0.6630    -0.2260     2.4880 c2         1 GEG      -0.304200
      8 C5           2.1120    -0.0840     2.1390 c3         1 GEG      -0.017900
      9 N3          -1.7010     0.0080     2.1670 nv         1 GEG      -0.820600
     10 H1C1         0.5410    -1.1020    -0.5710 hc         1 GEG       0.016700
     11 H1C2        -1.1950    -1.0380    -0.5970 hc         1 GEG       0.016700
     12 H2C1        -1.0770     1.3900     0.1590 hc         1 GEG       0.057200
     13 H2C2         0.6610     1.2530     0.2260 hc         1 GEG       0.057200
     14 H4           0.4510    -0.6700     3.4590 ha         1 GEG       0.091000
     15 H5C1         2.6790     0.3480     2.9670 hc         1 GEG       0.023033
     16 H5C2         2.5780    -1.0500     1.9190 hc         1 GEG       0.023033
     17 H5C3         2.2780     0.5510     1.2700 hc         1 GEG       0.023033
     18 H3N1        -2.3600    -0.2220     1.4390 hn         1 GEG       0.366800
     19 H3N2        -1.8210    -0.6210     2.9480 hn         1 GEG       0.366800
@<TRIPOS>BOND
     1     1     2 1   
     2     1     3 1   
     3     1     4 1   
     4     4     5 1   
     5     4    10 1   
     6     4    11 1   
     7     5     6 1   
     8     5    12 1   
     9     5    13 1   
    10     6     7 2   
    11     6     9 1   
    12     7     8 1   
    13     7    14 1   
    14     8    15 1   
    15     8    16 1   
    16     8    17 1   
    17     9    18 1   
    18     9    19 1   
@<TRIPOS>SUBSTRUCTURE
     1 GEG         1 TEMP              0 ****  ****    0 ROOT
