@<TRIPOS>MOLECULE
GEG
   19    18     1     0     0
SMALL
No Charge or Current Charge


@<TRIPOS>ATOM
      1 C1          -0.2150     0.1420    -2.2200 c          1 GEG       0.717000
      2 O1           0.8730     0.4630    -2.6720 o          1 GEG      -0.740000
      3 O2          -1.2750     0.3640    -2.7860 o          1 GEG      -0.740000
      4 C6          -0.2580    -0.5190    -0.8320 c3         1 GEG      -0.205400
      5 C2          -0.3630     0.5680     0.2680 c3         1 GEG      -0.036200
      6 C3          -0.3920    -0.0130     1.6770 c2         1 GEG       0.103800
      7 C4           0.6380    -0.1640     2.5190 c2         1 GEG      -0.354200
      8 C5           2.0960     0.1730     2.2610 c3         1 GEG      -0.017900
      9 N3          -1.6400    -0.4070     2.1240 nv         1 GEG      -0.931000
     10 H1C1         0.6770    -1.0560    -0.6310 hc         1 GEG       0.016700
     11 H1C2        -1.1560    -1.1410    -0.7300 hc         1 GEG       0.016700
     12 H2C1        -1.2590     1.1770     0.0920 hc         1 GEG       0.057200
     13 H2C2         0.4790     1.2610     0.1600 hc         1 GEG       0.057200
     14 H4           0.4730    -0.5860     3.5100 ha         1 GEG       0.141000
     15 H5C1         2.4190     1.0100     2.8910 hc         1 GEG       0.023033
     16 H5C2         2.7370    -0.6850     2.4950 hc         1 GEG       0.023033
     17 H5C3         2.2910     0.4450     1.2180 hc         1 GEG       0.023033
     18 H3N1        -2.3560    -0.5600     1.4180 hn         1 GEG       0.422000
     19 H3N2        -1.6740    -1.0220     2.9330 hn         1 GEG       0.422000
@<TRIPOS>BOND
     1     1     2 1   
     2     1     3 1   
     3     1     4 1   
     4     4     5 1   
     5     4    10 1   
     6     4    11 1   
     7     5     6 1   
     8     5    12 1   
     9     5    13 1   
    10     6     7 2   
    11     6     9 1   
    12     7     8 1   
    13     7    14 1   
    14     8    15 1   
    15     8    16 1   
    16     8    17 1   
    17     9    18 1   
    18     9    19 1   
@<TRIPOS>SUBSTRUCTURE
     1 GEG         1 TEMP              0 ****  ****    0 ROOT
