@<TRIPOS>MOLECULE
GEH
   33    33     1     0     0
SMALL
bcc


@<TRIPOS>ATOM
      1 C02         -3.4340     1.1020     0.1410 ca         1 GEH      -0.009600
      2 C03         -2.1310     1.2500     0.5780 ca         1 GEH      -0.084500
      3 O06         -0.8600    -2.0930    -0.3070 os         1 GEH      -0.306900
      4 C07          0.4820    -2.1760     0.1500 c3         1 GEH       0.093800
      5 C08          1.3140    -1.0830    -0.5520 c          1 GEH       0.639100
      6 C11          4.0350     1.0600     0.6720 c3         1 GEH       0.006700
      7 O13          1.0250    -0.7180    -1.6790 o          1 GEH      -0.567100
      8 C14          0.5410    -2.1850     1.6770 c3         1 GEH      -0.105100
      9 C04         -1.2280     0.2010     0.4510 ca         1 GEH      -0.179000
     10 C05         -1.6310    -1.0040    -0.1200 ca         1 GEH       0.161100
     11 C10          3.3220     0.3150    -0.4440 c3         1 GEH       0.109000
     12 C15          0.9900    -3.5160    -0.3820 c3         1 GEH      -0.105100
     13 C16         -2.9520    -1.1350    -0.5550 ca         1 GEH      -0.179000
     14 C17         -3.8500    -0.0920    -0.4290 ca         1 GEH      -0.084500
     15 N09          2.3740    -0.6190     0.1260 ns         1 GEH      -0.579900
     16 S12          5.2130     2.2290    -0.0800 sh         1 GEH      -0.380900
     17 CL1         -4.5550     2.4170     0.3040 cl         1 GEH      -0.116400
     18 H1          -1.8010     2.1790     1.0230 ha         1 GEH       0.145500
     19 H2           3.3140     1.6020     1.2840 h1         1 GEH       0.061700
     20 H3           4.5810     0.3640     1.3090 h1         1 GEH       0.061700
     21 H4          -0.1400    -2.9490     2.0500 hc         1 GEH       0.053700
     22 H5           1.5350    -2.4590     2.0310 hc         1 GEH       0.053700
     23 H6           0.2710    -1.2380     2.1390 hc         1 GEH       0.053700
     24 H7          -0.2230     0.3690     0.8080 ha         1 GEH       0.142500
     25 H8           2.7860     1.0180    -1.0810 h1         1 GEH       0.071200
     26 H9           4.0500    -0.2080    -1.0710 h1         1 GEH       0.071200
     27 H10          0.8860    -3.5780    -1.4640 hc         1 GEH       0.053700
     28 H11          2.0420    -3.6480    -0.1310 hc         1 GEH       0.053700
     29 H12          0.4320    -4.3360     0.0720 hc         1 GEH       0.053700
     30 H13         -3.2750    -2.0680    -0.9990 ha         1 GEH       0.142500
     31 H14         -4.8680    -0.2150    -0.7730 ha         1 GEH       0.145500
     32 H15          2.6010    -1.0180     1.0220 hn         1 GEH       0.313500
     33 H16          5.7860     2.6400     1.0550 hs         1 GEH       0.212800
@<TRIPOS>BOND
     1     1     2 ar  
     2     1    14 ar  
     3     1    17 1   
     4     2     9 ar  
     5     2    18 1   
     6     3     4 1   
     7     3    10 1   
     8     4     5 1   
     9     4     8 1   
    10     4    12 1   
    11     5     7 2   
    12     5    15 1   
    13     6    11 1   
    14     6    16 1   
    15     6    19 1   
    16     6    20 1   
    17     8    21 1   
    18     8    22 1   
    19     8    23 1   
    20     9    10 ar  
    21     9    24 1   
    22    10    13 ar  
    23    11    15 1   
    24    11    25 1   
    25    11    26 1   
    26    12    27 1   
    27    12    28 1   
    28    12    29 1   
    29    13    14 ar  
    30    13    30 1   
    31    14    31 1   
    32    15    32 1   
    33    16    33 1   
@<TRIPOS>SUBSTRUCTURE
     1 GEH         1 TEMP              0 ****  ****    0 ROOT
