@<TRIPOS>MOLECULE
GEH
   33    33     1     0     0
SMALL
No Charge or Current Charge


@<TRIPOS>ATOM
      1 C02         -2.9850     1.4130     0.5850 ca         1 GEH       0.082000
      2 C03         -1.6320     1.3460     0.9520 ca         1 GEH      -0.066500
      3 O06         -0.7970    -2.0470    -0.3880 os         1 GEH      -0.330100
      4 C07          0.5660    -2.3890    -0.0170 c3         1 GEH       0.117000
      5 C08          1.6090    -1.3430    -0.5570 c          1 GEH       0.572100
      6 C11          3.1680     1.4090     0.1740 c3         1 GEH       0.054600
      7 O13          1.4670    -0.7540    -1.6210 o          1 GEH      -0.567100
      8 C14          0.6000    -2.6280     1.5230 c3         1 GEH      -0.105100
      9 C04         -0.8710     0.2030     0.6430 ca         1 GEH      -0.161000
     10 C05         -1.4670    -0.8850    -0.0380 ca         1 GEH       0.161100
     11 C10          3.6950    -0.0300     0.0000 c3         1 GEH       0.109000
     12 C15          0.8210    -3.7340    -0.7410 c3         1 GEH      -0.105100
     13 C16         -2.8230    -0.8030    -0.4030 ca         1 GEH      -0.161000
     14 C17         -3.5820     0.3390    -0.0930 ca         1 GEH      -0.066500
     15 N09          2.6690    -1.0430     0.2810 ns         1 GEH      -0.512900
     16 S12          4.4570     2.7100    -0.1160 sh         1 GEH      -0.428800
     17 Cl1         -3.9310     2.8440     0.9730 cl         1 GEH      -0.208000
     18 H1          -1.1710     2.1810     1.4750 ha         1 GEH       0.127500
     19 H2           2.3400     1.5830    -0.5260 h1         1 GEH       0.061700
     20 H3           2.7800     1.5300     1.1930 h1         1 GEH       0.061700
     21 H4          -0.2360    -3.2680     1.8300 hc         1 GEH       0.053700
     22 H5           1.5270    -3.1340     1.8210 hc         1 GEH       0.053700
     23 H6           0.5320    -1.6950     2.0910 hc         1 GEH       0.053700
     24 H7           0.1710     0.1940     0.9380 ha         1 GEH       0.124500
     25 H8           4.0610    -0.1640    -1.0270 h1         1 GEH       0.071200
     26 H9           4.5410    -0.1880     0.6820 h1         1 GEH       0.071200
     27 H10          0.7340    -3.6140    -1.8270 hc         1 GEH       0.053700
     28 H11          1.8290    -4.1080    -0.5220 hc         1 GEH       0.053700
     29 H12          0.0990    -4.4960    -0.4220 hc         1 GEH       0.053700
     30 H13         -3.2870    -1.6330    -0.9290 ha         1 GEH       0.124500
     31 H14         -4.6300     0.3930    -0.3790 ha         1 GEH       0.127500
     32 H15          2.7280    -1.5560     1.1540 hn         1 GEH       0.313500
     33 H16          3.6500     3.7750     0.1170 hs         1 GEH       0.212800
@<TRIPOS>BOND
     1     1     2 ar  
     2     1    14 ar  
     3     1    17 1   
     4     2     9 ar  
     5     2    18 1   
     6     3     4 1   
     7     3    10 1   
     8     4     5 1   
     9     4     8 1   
    10     4    12 1   
    11     5     7 2   
    12     5    15 1   
    13     6    11 1   
    14     6    16 1   
    15     6    19 1   
    16     6    20 1   
    17     8    21 1   
    18     8    22 1   
    19     8    23 1   
    20     9    10 ar  
    21     9    24 1   
    22    10    13 ar  
    23    11    15 1   
    24    11    25 1   
    25    11    26 1   
    26    12    27 1   
    27    12    28 1   
    28    12    29 1   
    29    13    14 ar  
    30    13    30 1   
    31    14    31 1   
    32    15    32 1   
    33    16    33 1   
@<TRIPOS>SUBSTRUCTURE
     1 GEH         1 TEMP              0 ****  ****    0 ROOT
