@<TRIPOS>MOLECULE
GEI
   83    86     1     0     0
SMALL
No Charge or Current Charge


@<TRIPOS>ATOM
      1 C18          2.4080    32.8080     7.4100 c6         1 GEI      -0.049000
      2 C17          2.4930    31.5440     8.3210 c6         1 GEI      -0.072400
      3 C16          1.1540    30.7620     8.3850 c6         1 GEI       0.210300
      4 C19          1.8600    32.3720     6.0160 c6         1 GEI      -0.072400
      5 C20          0.5330    31.5790     6.1220 c6         1 GEI       0.210300
      6 C21          3.8250    33.4350     7.2460 c3         1 GEI      -0.080600
      7 C22          1.4990    33.9050     8.0530 c3         1 GEI      -0.080600
      8 C24          3.5590    26.8120     3.4510 c3         1 GEI      -0.101767
      9 C11         -2.2520    30.5460     6.8630 cp         1 GEI      -0.031000
     10 C12          2.5260    27.1340     8.1450 c          1 GEI       0.725000
     11 C34         -5.2150    36.2330     8.1800 c3         1 GEI      -0.029100
     12 C27         -2.3720    31.1640     8.1290 ca         1 GEI      -0.067500
     13 C33         -4.4580    34.9220     8.4690 c3         1 GEI       0.168600
     14 C1          -1.4900    29.2710     6.7060 cp         1 GEI      -0.160000
     15 C2          -2.1830    28.0640     6.4690 ca         1 GEI       0.358300
     16 N3          -1.5680    26.8770     6.3430 nb         1 GEI      -0.716000
     17 C4          -0.2250    26.8220     6.4490 ca         1 GEI       0.398300
     18 C5           0.5810    27.9640     6.6750 ca         1 GEI      -0.079300
     19 C6          -0.0720    29.2190     6.8120 ca         1 GEI       0.335000
     20 N7           0.6930    30.4010     7.0190 nh         1 GEI      -0.835400
     21 C8           2.1190    27.8350     6.7950 c3         1 GEI       0.058600
     22 O13          3.4400    26.3170     8.1440 o          1 GEI      -0.712500
     23 O14          2.6710    27.1440     5.6250 os         1 GEI      -0.434000
     24 O15          1.8780    27.3840     9.1530 o          1 GEI      -0.712500
     25 C25          1.8340    28.6250     3.8480 c3         1 GEI      -0.101767
     26 C26          4.2150    28.8600     4.8010 c3         1 GEI      -0.101767
     27 C28         -3.0620    32.3800     8.2780 ca         1 GEI      -0.178500
     28 C29         -3.6500    32.9980     7.1530 ca         1 GEI       0.125100
     29 C30         -3.5460    32.3870     5.8940 ca         1 GEI      -0.178500
     30 C31         -2.8550    31.1720     5.7480 ca         1 GEI      -0.067500
     31 O32         -4.3270    34.1960     7.2330 os         1 GEI      -0.355100
     32 C35         -4.4510    37.1650     7.2440 ca         1 GEI      -0.088300
     33 C36         -3.4010    37.9620     7.7430 ca         1 GEI      -0.073500
     34 C37         -2.6910    38.8170     6.8810 ca         1 GEI      -0.152000
     35 C38         -3.0290    38.8760     5.5200 ca         1 GEI       0.167000
     36 C39         -4.0720    38.0860     5.0150 ca         1 GEI      -0.152000
     37 C40         -4.7830    37.2300     5.8750 ca         1 GEI      -0.073500
     38 F41         -2.3460    39.6970     4.6930 f          1 GEI      -0.185000
     39 H52          3.2750    30.8700     7.9460 hc         1 GEI       0.043950
     40 H53          2.7980    31.8280     9.3380 hc         1 GEI       0.043950
     41 H50          0.3950    31.3730     8.8930 h1         1 GEI       0.043700
     42 H51          1.2980    29.8620     8.9950 h1         1 GEI       0.043700
     43 H54          2.6030    31.7470     5.5030 hc         1 GEI       0.043950
     44 H55          1.7090    33.2510     5.3750 hc         1 GEI       0.043950
     45 H56         -0.2540    32.2470     6.4990 h1         1 GEI       0.043700
     46 H57          0.2280    31.2570     5.1160 h1         1 GEI       0.043700
     47 H58          4.2420    33.7420     8.2130 hc         1 GEI       0.026867
     48 H60          4.5280    32.7230     6.7970 hc         1 GEI       0.026867
     49 H59          3.7990    34.3220     6.6000 hc         1 GEI       0.026867
     50 H61          1.8880    34.2220     9.0290 hc         1 GEI       0.026867
     51 H63          1.4430    34.7980     7.4180 hc         1 GEI       0.026867
     52 H62          0.4720    33.5590     8.2130 hc         1 GEI       0.026867
     53 H65          4.4050    26.2560     3.8730 hc         1 GEI       0.032367
     54 H64          2.7610    26.0960     3.2190 hc         1 GEI       0.032367
     55 H66          3.8880    27.2690     2.5110 hc         1 GEI       0.032367
     56 H80         -5.4050    36.7410     9.1330 hc         1 GEI       0.054700
     57 H79         -6.2020    35.9910     7.7670 hc         1 GEI       0.054700
     58 H73         -1.9190    30.6940     8.9980 ha         1 GEI       0.122000
     59 H77         -5.0200    34.3320     9.2050 h1         1 GEI       0.036200
     60 H78         -3.4710    35.1570     8.8900 h1         1 GEI       0.036200
     61 H42          2.5690    28.8270     6.8770 h1         1 GEI       0.047700
     62 H43         -0.4630    24.6530     6.3140 hc         1 GEI       0.052700
     63 H45          0.8510    25.2990     5.3330 hc         1 GEI       0.052700
     64 H44          1.0300    25.1560     7.0920 hc         1 GEI       0.052700
     65 H47         -4.0790    26.9780     6.3720 hc         1 GEI       0.037367
     66 H46         -4.1780    28.5420     7.1840 hc         1 GEI       0.037367
     67 H48         -4.0380    28.4670     5.4190 hc         1 GEI       0.037367
     68 H68          1.5470    29.4760     4.4700 hc         1 GEI       0.032367
     69 H67          2.0680    29.0160     2.8510 hc         1 GEI       0.032367
     70 H69          0.9750    27.9500     3.7550 hc         1 GEI       0.032367
     71 H70          3.8660    29.7070     5.4010 hc         1 GEI       0.032367
     72 H71          5.0020    28.3400     5.3610 hc         1 GEI       0.032367
     73 H72          4.6650    29.2720     3.8900 hc         1 GEI       0.032367
     74 H74         -3.1260    32.8240     9.2660 ha         1 GEI       0.112000
     75 H75         -3.9970    32.8600     5.0260 ha         1 GEI       0.112000
     76 H76         -2.7720    30.7160     4.7640 ha         1 GEI       0.122000
     77 H81         -3.1340    37.9180     8.7970 ha         1 GEI       0.116500
     78 H82         -1.8810    39.4320     7.2650 ha         1 GEI       0.128500
     79 H83         -4.3280    38.1350     3.9590 ha         1 GEI       0.128500
     80 H84         -5.5880    36.6150     5.4780 ha         1 GEI       0.116500
     81 C9           0.3300    25.4090     6.2900 c3         1 GEI      -0.135400
     82 C23          3.0600    27.8890     4.4410 c3         1 GEI       0.193000
     83 C10         -3.7010    28.0070     6.3550 c3         1 GEI      -0.135400
@<TRIPOS>BOND
     1     1     2 1   
     2     1     4 1   
     3     1     6 1   
     4     1     7 1   
     5     2     3 1   
     6     2    39 1   
     7     2    40 1   
     8     3    20 1   
     9     3    41 1   
    10     3    42 1   
    11     4     5 1   
    12     4    43 1   
    13     4    44 1   
    14     5    20 1   
    15     5    45 1   
    16     5    46 1   
    17     6    47 1   
    18     6    48 1   
    19     6    49 1   
    20     7    50 1   
    21     7    51 1   
    22     7    52 1   
    23     8    53 1   
    24     8    54 1   
    25     8    55 1   
    26     8    82 1   
    27     9    12 ar  
    28     9    14 1   
    29     9    30 ar  
    30    10    21 1   
    31    10    22 1   
    32    10    24 1   
    33    11    13 1   
    34    11    32 1   
    35    11    56 1   
    36    11    57 1   
    37    12    27 ar  
    38    12    58 1   
    39    13    31 1   
    40    13    59 1   
    41    13    60 1   
    42    14    15 ar  
    43    14    19 ar  
    44    15    16 ar  
    45    15    83 1   
    46    16    17 ar  
    47    17    18 ar  
    48    17    81 1   
    49    18    19 ar  
    50    18    21 1   
    51    19    20 1   
    52    21    23 1   
    53    21    61 1   
    54    23    82 1   
    55    25    68 1   
    56    25    69 1   
    57    25    70 1   
    58    25    82 1   
    59    26    71 1   
    60    26    72 1   
    61    26    73 1   
    62    26    82 1   
    63    27    28 ar  
    64    27    74 1   
    65    28    29 ar  
    66    28    31 1   
    67    29    30 ar  
    68    29    75 1   
    69    30    76 1   
    70    32    33 ar  
    71    32    37 ar  
    72    33    34 ar  
    73    33    77 1   
    74    34    35 ar  
    75    34    78 1   
    76    35    36 ar  
    77    35    38 1   
    78    36    37 ar  
    79    36    79 1   
    80    37    80 1   
    81    62    81 1   
    82    63    81 1   
    83    64    81 1   
    84    65    83 1   
    85    66    83 1   
    86    67    83 1   
@<TRIPOS>SUBSTRUCTURE
     1 GEI         1 TEMP              0 ****  ****    0 ROOT
