@<TRIPOS>MOLECULE
GEI
   83    86     1     0     0
SMALL
bcc


@<TRIPOS>ATOM
      1 C18          2.1470    32.8840     7.2940 c6         1 GEI      -0.049000
      2 C17          2.3650    31.6210     8.1350 c6         1 GEI      -0.072400
      3 C16          1.1220    30.7510     8.2440 c6         1 GEI       0.210300
      4 C19          1.5310    32.4610     5.9550 c6         1 GEI      -0.072400
      5 C20          0.2830    31.6050     6.1270 c6         1 GEI       0.210300
      6 C21          3.4910    33.5640     7.0410 c3         1 GEI      -0.080600
      7 C22          1.2340    33.8710     8.0260 c3         1 GEI      -0.080600
      8 C24          3.5020    26.9170     3.5500 c3         1 GEI      -0.101767
      9 C11         -2.3320    30.4930     6.8330 cp         1 GEI      -0.031000
     10 C12          2.5950    27.3190     8.0860 c          1 GEI       0.935600
     11 C34         -5.0290    36.1680     8.1660 c3         1 GEI      -0.029100
     12 C27         -2.4450    31.0960     8.0790 ca         1 GEI      -0.085500
     13 C33         -4.4090    34.8080     8.4290 c3         1 GEI       0.145400
     14 C1          -1.5430    29.2500     6.6700 cp         1 GEI      -0.225300
     15 C2          -2.1970    28.0330     6.4700 ca         1 GEI       0.423600
     16 N3          -1.5440    26.8800     6.4250 nb         1 GEI      -0.716000
     17 C4          -0.2180    26.8590     6.5570 ca         1 GEI       0.463600
     18 C5           0.5410    28.0180     6.7280 ca         1 GEI      -0.144600
     19 C6          -0.1430    29.2490     6.7840 ca         1 GEI       0.196600
     20 N7           0.5990    30.4340     6.9240 nh         1 GEI      -0.697000
     21 C8           2.0500    27.9510     6.7680 c3         1 GEI       0.035400
     22 O13          3.6420    26.6590     8.0060 o          1 GEI      -0.817800
     23 O14          2.5580    27.2550     5.6540 os         1 GEI      -0.387600
     24 O15          1.9420    27.5770     9.1180 o          1 GEI      -0.817800
     25 C25          1.9690    28.8520     3.9000 c3         1 GEI      -0.101767
     26 C26          4.2550    28.8510     4.9290 c3         1 GEI      -0.101767
     27 C28         -3.1190    32.3000     8.2510 ca         1 GEI      -0.196500
     28 C29         -3.7000    32.9270     7.1530 ca         1 GEI       0.125100
     29 C30         -3.6310    32.3110     5.9010 ca         1 GEI      -0.196500
     30 C31         -2.9600    31.1120     5.7520 ca         1 GEI      -0.085500
     31 O32         -4.3390    34.1110     7.1990 os         1 GEI      -0.331900
     32 C35         -4.1770    37.0310     7.2770 ca         1 GEI      -0.088300
     33 C36         -3.1370    37.7860     7.8160 ca         1 GEI      -0.091500
     34 C37         -2.3180    38.5680     7.0120 ca         1 GEI      -0.170000
     35 C38         -2.5530    38.5840     5.6510 ca         1 GEI       0.131900
     36 C39         -3.5730    37.8510     5.0770 ca         1 GEI      -0.170000
     37 C40         -4.3780    37.0750     5.9010 ca         1 GEI      -0.091500
     38 F41         -1.7710    39.3440     4.8640 f          1 GEI      -0.149900
     39 H52          3.1680    31.0280     7.6830 hc         1 GEI       0.043950
     40 H53          2.7030    31.8940     9.1400 hc         1 GEI       0.043950
     41 H50          0.3580    31.2560     8.8550 h1         1 GEI       0.043700
     42 H51          1.3680    29.8230     8.7580 h1         1 GEI       0.043700
     43 H54          2.2740    31.8980     5.3790 hc         1 GEI       0.043950
     44 H55          1.2730    33.3460     5.3660 hc         1 GEI       0.043950
     45 H56         -0.5140    32.2180     6.5640 h1         1 GEI       0.043700
     46 H57         -0.0740    31.2790     5.1490 h1         1 GEI       0.043700
     47 H58          3.9670    33.8560     7.9800 hc         1 GEI       0.026867
     48 H60          4.1770    32.8980     6.5130 hc         1 GEI       0.026867
     49 H59          3.3700    34.4660     6.4370 hc         1 GEI       0.026867
     50 H61          1.6880    34.1840     8.9690 hc         1 GEI       0.026867
     51 H63          1.0680    34.7660     7.4230 hc         1 GEI       0.026867
     52 H62          0.2540    33.4540     8.2630 hc         1 GEI       0.026867
     53 H65          4.2820    26.2870     3.9800 hc         1 GEI       0.032367
     54 H64          2.6660    26.2770     3.2600 hc         1 GEI       0.032367
     55 H66          3.9020    27.3770     2.6460 hc         1 GEI       0.032367
     56 H80         -5.1680    36.6510     9.1350 hc         1 GEI       0.054700
     57 H79         -6.0250    36.0380     7.7350 hc         1 GEI       0.054700
     58 H73         -1.9860    30.6280     8.9420 ha         1 GEI       0.140000
     59 H77         -5.0160    34.2510     9.1520 h1         1 GEI       0.036200
     60 H78         -3.4090    34.9330     8.8610 h1         1 GEI       0.036200
     61 H42          2.4090    28.9870     6.7690 h1         1 GEI       0.047700
     62 H43         -0.3560    24.7460     6.7630 hc         1 GEI       0.052700
     63 H45          0.7000    25.2560     5.4540 hc         1 GEI       0.052700
     64 H44          1.2620    25.3570     7.1090 hc         1 GEI       0.052700
     65 H47         -4.0110    26.9230     6.2910 hc         1 GEI       0.037367
     66 H46         -4.1950    28.4380     7.1830 hc         1 GEI       0.037367
     67 H48         -4.0430    28.4680     5.4390 hc         1 GEI       0.037367
     68 H68          1.6270    29.6380     4.5740 hc         1 GEI       0.032367
     69 H67          2.3550    29.3370     3.0020 hc         1 GEI       0.032367
     70 H69          1.1050    28.2510     3.6120 hc         1 GEI       0.032367
     71 H70          3.9840    29.6700     5.5990 hc         1 GEI       0.032367
     72 H71          5.0220    28.2500     5.4200 hc         1 GEI       0.032367
     73 H72          4.6970    29.3020     4.0400 hc         1 GEI       0.032367
     74 H74         -3.1750    32.7280     9.2430 ha         1 GEI       0.130000
     75 H75         -4.0940    32.7900     5.0470 ha         1 GEI       0.130000
     76 H76         -2.8960    30.6650     4.7670 ha         1 GEI       0.140000
     77 H81         -2.9620    37.7720     8.8850 ha         1 GEI       0.134500
     78 H82         -1.5160    39.1560     7.4390 ha         1 GEI       0.146500
     79 H83         -3.7400    37.8830     4.0080 ha         1 GEI       0.146500
     80 H84         -5.1830    36.5010     5.4580 ha         1 GEI       0.134500
     81 C9           0.3890    25.4860     6.4740 c3         1 GEI      -0.135400
     82 C23          3.0530    27.9880     4.5400 c3         1 GEI       0.169800
     83 C10         -3.6920    27.9620     6.3400 c3         1 GEI      -0.135400
@<TRIPOS>BOND
     1     1     2 1   
     2     1     4 1   
     3     1     6 1   
     4     1     7 1   
     5     2     3 1   
     6     2    39 1   
     7     2    40 1   
     8     3    20 1   
     9     3    41 1   
    10     3    42 1   
    11     4     5 1   
    12     4    43 1   
    13     4    44 1   
    14     5    20 1   
    15     5    45 1   
    16     5    46 1   
    17     6    47 1   
    18     6    48 1   
    19     6    49 1   
    20     7    50 1   
    21     7    51 1   
    22     7    52 1   
    23     8    53 1   
    24     8    54 1   
    25     8    55 1   
    26     8    82 1   
    27     9    12 ar  
    28     9    14 1   
    29     9    30 ar  
    30    10    21 1   
    31    10    22 1   
    32    10    24 1   
    33    11    13 1   
    34    11    32 1   
    35    11    56 1   
    36    11    57 1   
    37    12    27 ar  
    38    12    58 1   
    39    13    31 1   
    40    13    59 1   
    41    13    60 1   
    42    14    15 ar  
    43    14    19 ar  
    44    15    16 ar  
    45    15    83 1   
    46    16    17 ar  
    47    17    18 ar  
    48    17    81 1   
    49    18    19 ar  
    50    18    21 1   
    51    19    20 1   
    52    21    23 1   
    53    21    61 1   
    54    23    82 1   
    55    25    68 1   
    56    25    69 1   
    57    25    70 1   
    58    25    82 1   
    59    26    71 1   
    60    26    72 1   
    61    26    73 1   
    62    26    82 1   
    63    27    28 ar  
    64    27    74 1   
    65    28    29 ar  
    66    28    31 1   
    67    29    30 ar  
    68    29    75 1   
    69    30    76 1   
    70    32    33 ar  
    71    32    37 ar  
    72    33    34 ar  
    73    33    77 1   
    74    34    35 ar  
    75    34    78 1   
    76    35    36 ar  
    77    35    38 1   
    78    36    37 ar  
    79    36    79 1   
    80    37    80 1   
    81    62    81 1   
    82    63    81 1   
    83    64    81 1   
    84    65    83 1   
    85    66    83 1   
    86    67    83 1   
@<TRIPOS>SUBSTRUCTURE
     1 GEI         1 TEMP              0 ****  ****    0 ROOT
