@<TRIPOS>MOLECULE
GEJ
   60    63     1     0     0
SMALL
No Charge or Current Charge


@<TRIPOS>ATOM
      1 C01         35.4990   -42.5330    30.2310 c3         1 GEJ      -0.083100
      2 C02         35.3930   -41.7110    28.9280 c3         1 GEJ      -0.008100
      3 C03         34.8800   -40.2980    29.1500 cc         1 GEJ      -0.025300
      4 C04         35.6350   -39.1870    29.4840 cd         1 GEJ      -0.242500
      5 C05         37.0630   -39.1150    29.7370 cd         1 GEJ       0.436500
      6 C06         37.6180   -37.8910    30.0460 cc         1 GEJ      -0.315000
      7 C08         39.1620   -39.7560    29.9900 cc         1 GEJ       0.701300
      8 C10         41.6260   -40.1760    30.3130 c6         1 GEJ       0.226800
      9 C11         42.4820   -41.2710    31.0310 c6         1 GEJ       0.145800
     10 C13         41.0020   -43.0290    30.1620 c6         1 GEJ       0.149800
     11 C14         40.1630   -41.9850    29.3450 c6         1 GEJ       0.161500
     12 C15         40.5670   -41.9390    27.8290 c          1 GEJ       0.602100
     13 C18         42.4420   -42.3900    26.1930 c3         1 GEJ       0.112000
     14 C19         42.9620   -40.9680    25.9010 c3         1 GEJ      -0.147700
     15 C20         43.8660   -40.4210    26.9720 cc         1 GEJ       0.196300
     16 C21         44.7970   -41.0150    27.7640 cd         1 GEJ      -0.263000
     17 C22         45.2980   -40.0070    28.6040 cd         1 GEJ       0.260900
     18 C27         33.4830   -38.4810    29.3040 cd         1 GEJ      -0.068300
     19 C28         32.3420   -37.4900    29.3360 c3         1 GEJ      -0.031800
     20 C29         33.5090   -39.8440    29.0500 cc         1 GEJ      -0.258600
     21 C30         32.2440   -40.6150    28.7390 c          1 GEJ       0.616700
     22 C31         32.2390   -42.1220    28.4810 c3         1 GEJ      -0.191100
     23 N09         40.2250   -40.6350    30.0400 nh         1 GEJ      -0.777300
     24 N12         42.4180   -42.6070    30.3690 n7         1 GEJ      -0.856400
     25 N17         41.7950   -42.4790    27.5020 ns         1 GEJ      -0.493900
     26 N23         44.7360   -38.8340    28.3750 nc         1 GEJ      -0.353300
     27 N25         37.9460   -40.1760    29.7140 nd         1 GEJ      -0.714000
     28 N26         34.7880   -38.0850    29.5640 na         1 GEJ      -0.094000
     29 O16         39.8580   -41.4160    26.9760 o          1 GEJ      -0.610100
     30 O24         43.7970   -39.0900    27.3050 os         1 GEJ      -0.073700
     31 O32         31.1550   -40.0550    28.6860 o          1 GEJ      -0.567100
     32 S07         39.3290   -38.0430    30.3160 ss         1 GEJ      -0.102400
     33 H1          35.8320   -43.5550    30.0120 hc         1 GEJ       0.034700
     34 H2          36.2220   -42.0780    30.9180 hc         1 GEJ       0.034700
     35 H3          34.5340   -42.5860    30.7470 hc         1 GEJ       0.034700
     36 H4          36.3770   -41.6830    28.4500 hc         1 GEJ       0.049700
     37 H5          34.8000   -42.2530    28.1930 hc         1 GEJ       0.049700
     38 H6          37.1500   -36.9220    30.1320 h4         1 GEJ       0.155000
     39 H7          42.1140   -39.9090    29.3650 h1         1 GEJ       0.047700
     40 H8          41.6380   -39.2770    30.9450 h1         1 GEJ       0.047700
     41 H9          43.5290   -40.9380    31.0850 h1         1 GEJ       0.045200
     42 H10         42.1180   -41.3710    32.0640 h1         1 GEJ       0.045200
     43 H11         40.5220   -43.1670    31.1430 h1         1 GEJ       0.057200
     44 H12         40.9730   -44.0050    29.6550 h1         1 GEJ       0.057200
     45 H13         39.1330   -42.3680    29.3320 h1         1 GEJ       0.112700
     46 H14         41.7280   -42.6930    25.4150 h1         1 GEJ       0.058700
     47 H15         43.2810   -43.0980    26.1730 h1         1 GEJ       0.058700
     48 H16         42.1060   -40.2950    25.7700 hc         1 GEJ       0.084200
     49 H17         43.4970   -40.9770    24.9450 hc         1 GEJ       0.084200
     50 H18         45.0860   -42.0590    27.7600 ha         1 GEJ       0.143000
     51 H19         46.0520   -40.0940    29.3760 h4         1 GEJ       0.039100
     52 H20         31.6000   -37.7660    30.0940 hc         1 GEJ       0.055700
     53 H21         32.6930   -36.4790    29.5760 hc         1 GEJ       0.055700
     54 H22         31.8360   -37.4380    28.3650 hc         1 GEJ       0.055700
     55 H23         31.2210   -42.5250    28.4250 hc         1 GEJ       0.058367
     56 H24         32.7610   -42.3180    27.5390 hc         1 GEJ       0.058367
     57 H25         32.8240   -42.6430    29.2410 hc         1 GEJ       0.058367
     58 H26         42.8930   -43.2970    30.9690 hn         1 GEJ       0.424000
     59 H28         42.3470   -42.7980    28.2960 hn         1 GEJ       0.315500
     60 H29         35.0710   -37.1370    29.7890 hn         1 GEJ       0.344000
@<TRIPOS>BOND
     1     1     2 1   
     2     1    33 1   
     3     1    34 1   
     4     1    35 1   
     5     2     3 1   
     6     2    36 1   
     7     2    37 1   
     8     3     4 2   
     9     3    20 1   
    10     4     5 1   
    11     4    28 1   
    12     5     6 2   
    13     5    27 1   
    14     6    32 1   
    15     6    38 1   
    16     7    23 1   
    17     7    27 2   
    18     7    32 1   
    19     8     9 1   
    20     8    23 1   
    21     8    39 1   
    22     8    40 1   
    23     9    24 1   
    24     9    41 1   
    25     9    42 1   
    26    10    11 1   
    27    10    24 1   
    28    10    43 1   
    29    10    44 1   
    30    11    12 1   
    31    11    23 1   
    32    11    45 1   
    33    12    25 1   
    34    12    29 2   
    35    13    14 1   
    36    13    25 1   
    37    13    46 1   
    38    13    47 1   
    39    14    15 1   
    40    14    48 1   
    41    14    49 1   
    42    15    16 2   
    43    15    30 1   
    44    16    17 1   
    45    16    50 1   
    46    17    26 2   
    47    17    51 1   
    48    18    19 1   
    49    18    20 2   
    50    18    28 1   
    51    19    52 1   
    52    19    53 1   
    53    19    54 1   
    54    20    21 1   
    55    21    22 1   
    56    21    31 2   
    57    22    55 1   
    58    22    56 1   
    59    22    57 1   
    60    24    58 1   
    61    25    59 1   
    62    26    30 1   
    63    28    60 1   
@<TRIPOS>SUBSTRUCTURE
     1 GEJ         1 TEMP              0 ****  ****    0 ROOT
