@<TRIPOS>MOLECULE
GEJ
   60    63     1     0     0
SMALL
abcg2


@<TRIPOS>ATOM
      1 C01         36.3320   -42.5390    29.1660 c3         1 GEJ      -0.083100
      2 C02         36.7040   -41.3780    28.2460 c3         1 GEJ      -0.008100
      3 C03         36.2420   -40.0420    28.7460 cc         1 GEJ      -0.025300
      4 C04         36.9970   -39.1990    29.5320 cd         1 GEJ      -0.242500
      5 C05         38.3520   -39.3000    30.0450 cd         1 GEJ       0.436500
      6 C06         39.1270   -38.2420    30.4130 cc         1 GEJ      -0.315000
      7 C08         40.1350   -40.4340    30.6760 cc         1 GEJ       0.701300
      8 C10         42.3270   -41.2910    31.2970 c6         1 GEJ       0.226800
      9 C11         42.9300   -42.5270    31.9370 c6         1 GEJ       0.145800
     10 C13         41.2000   -43.9250    31.1720 c6         1 GEJ       0.149800
     11 C14         40.4710   -42.7920    30.4570 c6         1 GEJ       0.161500
     12 C15         40.5550   -42.9730    28.9380 c          1 GEJ       0.602100
     13 C18         41.4030   -42.1070    26.8090 c3         1 GEJ       0.112000
     14 C19         40.1880   -41.5100    26.1060 c3         1 GEJ      -0.147700
     15 C20         39.9520   -40.0800    26.4370 cc         1 GEJ       0.196300
     16 C21         40.6570   -39.1350    27.1070 cd         1 GEJ      -0.263000
     17 C22         39.8330   -37.9880    27.0250 cd         1 GEJ       0.260900
     18 C27         35.0470   -38.1460    29.1880 cd         1 GEJ      -0.068300
     19 C28         34.0690   -37.0360    29.3400 c3         1 GEJ      -0.031800
     20 C29         34.9890   -39.3720    28.5180 cc         1 GEJ      -0.258600
     21 C30         33.8120   -39.7690    27.7480 c          1 GEJ       0.616700
     22 C31         33.7850   -41.0960    27.0330 c3         1 GEJ      -0.191100
     23 N09         40.9300   -41.5010    30.9420 nh         1 GEJ      -0.777300
     24 N12         42.6250   -43.6870    31.1270 n7         1 GEJ      -0.856400
     25 N17         41.3020   -42.0990    28.2510 ns         1 GEJ      -0.493900
     26 N23         38.7420   -38.2260    26.3640 nc         1 GEJ      -0.353300
     27 N25         38.9360   -40.5300    30.1910 nd         1 GEJ      -0.714000
     28 N26         36.2490   -38.0730    29.7730 na         1 GEJ      -0.094000
     29 O16         39.9600   -43.9010    28.4110 o          1 GEJ      -0.610100
     30 O24         38.8120   -39.5380    25.9950 os         1 GEJ      -0.073700
     31 O32         32.8430   -39.0300    27.6630 o          1 GEJ      -0.567100
     32 S07         40.6600   -38.7980    30.9740 ss         1 GEJ      -0.102400
     33 H1          36.6670   -43.4870    28.7420 hc         1 GEJ       0.034700
     34 H2          36.8070   -42.4220    30.1400 hc         1 GEJ       0.034700
     35 H3          35.2560   -42.6080    29.3290 hc         1 GEJ       0.034700
     36 H4          37.7880   -41.3600    28.1460 hc         1 GEJ       0.049700
     37 H5          36.3170   -41.5620    27.2440 hc         1 GEJ       0.049700
     38 H6          38.9150   -37.1860    30.3580 h4         1 GEJ       0.155000
     39 H7          42.9240   -41.0000    30.4230 h1         1 GEJ       0.047700
     40 H8          42.3920   -40.4700    32.0150 h1         1 GEJ       0.047700
     41 H9          44.0090   -42.3850    32.0000 h1         1 GEJ       0.045200
     42 H10         42.5480   -42.6230    32.9650 h1         1 GEJ       0.045200
     43 H11         40.8130   -43.9880    32.2000 h1         1 GEJ       0.057200
     44 H12         40.9550   -44.8640    30.6770 h1         1 GEJ       0.057200
     45 H13         39.4100   -42.8810    30.6980 h1         1 GEJ       0.112700
     46 H14         41.5410   -43.1290    26.4580 h1         1 GEJ       0.058700
     47 H15         42.3040   -41.5570    26.5400 h1         1 GEJ       0.058700
     48 H16         39.2960   -42.0930    26.3520 hc         1 GEJ       0.084200
     49 H17         40.3300   -41.6130    25.0260 hc         1 GEJ       0.084200
     50 H18         41.6160   -39.2180    27.5880 ha         1 GEJ       0.143000
     51 H19         40.0110   -37.0040    27.4310 h4         1 GEJ       0.039100
     52 H20         33.1390   -37.3790    29.7900 hc         1 GEJ       0.055700
     53 H21         34.4820   -36.2510    29.9730 hc         1 GEJ       0.055700
     54 H22         33.8140   -36.5920    28.3780 hc         1 GEJ       0.055700
     55 H23         32.7930   -41.2700    26.6210 hc         1 GEJ       0.058367
     56 H24         34.5020   -41.1050    26.2100 hc         1 GEJ       0.058367
     57 H25         34.0400   -41.9240    27.6930 hc         1 GEJ       0.058367
     58 H26         43.1200   -44.4950    31.4800 hn         1 GEJ       0.424000
     59 H28         41.7660   -41.3560    28.7420 hn         1 GEJ       0.315500
     60 H29         36.5360   -37.3070    30.3650 hn         1 GEJ       0.344000
@<TRIPOS>BOND
     1     1     2 1   
     2     1    33 1   
     3     1    34 1   
     4     1    35 1   
     5     2     3 1   
     6     2    36 1   
     7     2    37 1   
     8     3     4 2   
     9     3    20 1   
    10     4     5 1   
    11     4    28 1   
    12     5     6 2   
    13     5    27 1   
    14     6    32 1   
    15     6    38 1   
    16     7    23 1   
    17     7    27 2   
    18     7    32 1   
    19     8     9 1   
    20     8    23 1   
    21     8    39 1   
    22     8    40 1   
    23     9    24 1   
    24     9    41 1   
    25     9    42 1   
    26    10    11 1   
    27    10    24 1   
    28    10    43 1   
    29    10    44 1   
    30    11    12 1   
    31    11    23 1   
    32    11    45 1   
    33    12    25 1   
    34    12    29 2   
    35    13    14 1   
    36    13    25 1   
    37    13    46 1   
    38    13    47 1   
    39    14    15 1   
    40    14    48 1   
    41    14    49 1   
    42    15    16 2   
    43    15    30 1   
    44    16    17 1   
    45    16    50 1   
    46    17    26 2   
    47    17    51 1   
    48    18    19 1   
    49    18    20 2   
    50    18    28 1   
    51    19    52 1   
    52    19    53 1   
    53    19    54 1   
    54    20    21 1   
    55    21    22 1   
    56    21    31 2   
    57    22    55 1   
    58    22    56 1   
    59    22    57 1   
    60    24    58 1   
    61    25    59 1   
    62    26    30 1   
    63    28    60 1   
@<TRIPOS>SUBSTRUCTURE
     1 GEJ         1 TEMP              0 ****  ****    0 ROOT
