@<TRIPOS>MOLECULE
GEL
   74    73     1     0     0
SMALL
No Charge or Current Charge


@<TRIPOS>ATOM
      1 C1          -0.5950     2.5480     0.5950 c3         1 GEL       0.146600
      2 O1          -0.0840     1.3910     1.2840 os         1 GEL      -0.396000
      3 C11          0.8950     1.6800     2.2900 c3         1 GEL       0.173600
      4 C12          1.3230     0.3410     2.9200 c3         1 GEL      -0.089400
      5 C13          2.3650     0.5130     4.0480 c3         1 GEL      -0.073400
      6 C14          2.7960    -0.8280     4.6820 c3         1 GEL      -0.078400
      7 C15          3.8370    -0.6550     5.8100 c3         1 GEL      -0.074400
      8 C16          4.2680    -1.9950     6.4450 c3         1 GEL      -0.076400
      9 C17          5.3090    -1.8230     7.5730 c3         1 GEL      -0.075400
     10 C18          5.7390    -3.1600     8.2060 c3         1 GEL      -0.087100
     11 C2          -1.6400     2.1340    -0.4910 c3         1 GEL       0.238300
     12 O2          -1.0780     1.2500    -1.4880 os         1 GEL      -0.570400
     13 P2           0.0990     1.7370    -2.4770 p5         1 GEL       1.404400
     14 O1P         -0.2720     2.9870    -3.2050 o          1 GEL      -0.845500
     15 O2P          1.4360     1.8150    -1.8150 o          1 GEL      -0.845500
     16 C22          0.0610     0.3160    -3.6400 c3         1 GEL      -0.426400
     17 C23          1.0770     0.4010    -4.8020 c3         1 GEL      -0.039400
     18 C24          1.0050    -0.8160    -5.7510 c3         1 GEL      -0.075400
     19 C25          2.0180    -0.7370    -6.9140 c3         1 GEL      -0.075400
     20 C26          1.9460    -1.9540    -7.8630 c3         1 GEL      -0.076400
     21 C27          2.9590    -1.8750    -9.0260 c3         1 GEL      -0.076400
     22 C28          2.8870    -3.0890    -9.9720 c3         1 GEL      -0.086100
     23 C3          -2.9670     1.5240     0.0620 c3         1 GEL       0.231600
     24 O3          -2.7330     0.2720     0.7310 os         1 GEL      -0.572400
     25 P3          -3.9170    -0.8190     0.8100 p5         1 GEL       1.407800
     26 O3P         -3.4190    -2.1600     1.2390 o          1 GEL      -0.845500
     27 O4P         -4.6700    -0.9180    -0.4760 o          1 GEL      -0.845500
     28 O5P         -4.8200    -0.1320     1.9590 os         1 GEL      -0.589400
     29 C31         -4.6380    -0.3900     3.3700 c3         1 GEL       0.225600
     30 C32         -3.1700    -0.1450     3.8600 c3         1 GEL       0.146800
     31 N3          -2.6330     1.1950     3.5390 n8         1 GEL      -1.002200
     32 H11         -1.0860     3.2220     1.3100 h1         1 GEL       0.010700
     33 H12          0.2210     3.1140     0.1310 h1         1 GEL       0.010700
     34 H111         0.4710     2.3330     3.0640 h1         1 GEL      -0.004300
     35 H112         1.7680     2.1780     1.8500 h1         1 GEL      -0.004300
     36 H121         1.7400    -0.3030     2.1360 hc         1 GEL       0.065700
     37 H122         0.4370    -0.1670     3.3190 hc         1 GEL       0.065700
     38 H131         1.9470     1.1630     4.8270 hc         1 GEL       0.027200
     39 H132         3.2490     1.0230     3.6460 hc         1 GEL       0.027200
     40 H141         3.2130    -1.4770     3.9030 hc         1 GEL       0.040700
     41 H142         1.9110    -1.3370     5.0840 hc         1 GEL       0.040700
     42 H151         3.4190    -0.0060     6.5900 hc         1 GEL       0.032200
     43 H152         4.7220    -0.1460     5.4080 hc         1 GEL       0.032200
     44 H161         4.6850    -2.6450     5.6660 hc         1 GEL       0.037200
     45 H162         3.3830    -2.5050     6.8470 hc         1 GEL       0.037200
     46 H171         4.8940    -1.1760     8.3550 hc         1 GEL       0.033200
     47 H172         6.1960    -1.3160     7.1740 hc         1 GEL       0.033200
     48 H181         6.4770    -2.9870     8.9990 hc         1 GEL       0.026033
     49 H182         4.8770    -3.6760     8.6460 hc         1 GEL       0.026033
     50 H183         6.1910    -3.8180     7.4550 hc         1 GEL       0.026033
     51 H2          -1.9370     3.0670    -0.9860 h1         1 GEL       0.017700
     52 H221         0.2430    -0.5820    -3.0410 hc         1 GEL       0.054200
     53 H222        -0.9600     0.2590    -4.0310 hc         1 GEL       0.054200
     54 H231         0.8930     1.3170    -5.3780 hc         1 GEL       0.035700
     55 H232         2.0920     0.4780    -4.3920 hc         1 GEL       0.035700
     56 H241         1.1890    -1.7320    -5.1750 hc         1 GEL       0.029700
     57 H242        -0.0090    -0.8930    -6.1610 hc         1 GEL       0.029700
     58 H251         1.8340     0.1790    -7.4900 hc         1 GEL       0.031700
     59 H252         3.0320    -0.6600    -6.5040 hc         1 GEL       0.031700
     60 H261         2.1290    -2.8700    -7.2870 hc         1 GEL       0.032700
     61 H262         0.9310    -2.0310    -8.2730 hc         1 GEL       0.032700
     62 H271         2.7770    -0.9610    -9.6050 hc         1 GEL       0.032700
     63 H272         3.9750    -1.8000    -8.6190 hc         1 GEL       0.032700
     64 H281         3.6220    -2.9880   -10.7790 hc         1 GEL       0.022700
     65 H282         3.1000    -4.0170    -9.4290 hc         1 GEL       0.022700
     66 H283         1.8910    -3.1710   -10.4230 hc         1 GEL       0.022700
     67 H31         -3.4200     2.2400     0.7590 h1         1 GEL       0.015200
     68 H32         -3.6620     1.4040    -0.7790 h1         1 GEL       0.015200
     69 H311        -5.3080     0.2610     3.9470 h1         1 GEL       0.020200
     70 H312        -4.9190    -1.4260     3.6030 h1         1 GEL       0.020200
     71 H321        -3.1400    -0.2650     4.9510 h1         1 GEL       0.006700
     72 H322        -2.4960    -0.8950     3.4280 h1         1 GEL       0.006700
     73 HN31        -1.6570     1.2390     3.8490 hn         1 GEL       0.390500
     74 HN32        -2.5510     1.2280     2.5130 hn         1 GEL       0.390500
@<TRIPOS>BOND
     1     1     2 1   
     2     1    11 1   
     3     1    32 1   
     4     1    33 1   
     5     2     3 1   
     6     3     4 1   
     7     3    34 1   
     8     3    35 1   
     9     4     5 1   
    10     4    36 1   
    11     4    37 1   
    12     5     6 1   
    13     5    38 1   
    14     5    39 1   
    15     6     7 1   
    16     6    40 1   
    17     6    41 1   
    18     7     8 1   
    19     7    42 1   
    20     7    43 1   
    21     8     9 1   
    22     8    44 1   
    23     8    45 1   
    24     9    10 1   
    25     9    46 1   
    26     9    47 1   
    27    10    48 1   
    28    10    49 1   
    29    10    50 1   
    30    11    12 1   
    31    11    23 1   
    32    11    51 1   
    33    12    13 1   
    34    13    14 1   
    35    13    15 1   
    36    13    16 1   
    37    16    17 1   
    38    16    52 1   
    39    16    53 1   
    40    17    18 1   
    41    17    54 1   
    42    17    55 1   
    43    18    19 1   
    44    18    56 1   
    45    18    57 1   
    46    19    20 1   
    47    19    58 1   
    48    19    59 1   
    49    20    21 1   
    50    20    60 1   
    51    20    61 1   
    52    21    22 1   
    53    21    62 1   
    54    21    63 1   
    55    22    64 1   
    56    22    65 1   
    57    22    66 1   
    58    23    24 1   
    59    23    67 1   
    60    23    68 1   
    61    24    25 1   
    62    25    26 1   
    63    25    27 1   
    64    25    28 1   
    65    28    29 1   
    66    29    30 1   
    67    29    69 1   
    68    29    70 1   
    69    30    31 1   
    70    30    71 1   
    71    30    72 1   
    72    31    73 1   
    73    31    74 1   
@<TRIPOS>SUBSTRUCTURE
     1 GEL         1 TEMP              0 ****  ****    0 ROOT
