@<TRIPOS>MOLECULE
GEL
   74    73     1     0     0
SMALL
abcg2


@<TRIPOS>ATOM
      1 C1          -0.2960     2.7020     0.2160 c3         1 GEL       0.146600
      2 O1           0.2350     1.5730     0.8510 os         1 GEL      -0.396000
      3 C11          0.8430     1.8580     2.0830 c3         1 GEL       0.173600
      4 C12          1.3800     0.5740     2.6830 c3         1 GEL      -0.089400
      5 C13          1.9300     0.7790     4.0890 c3         1 GEL      -0.073400
      6 C14          2.4100    -0.5180     4.7280 c3         1 GEL      -0.078400
      7 C15          2.9120    -0.3400     6.1540 c3         1 GEL      -0.074400
      8 C16          3.4170    -1.6370     6.7750 c3         1 GEL      -0.076400
      9 C17          3.9050    -1.4730     8.2080 c3         1 GEL      -0.075400
     10 C18          4.4220    -2.7750     8.8070 c3         1 GEL      -0.087100
     11 C2          -1.2920     2.3080    -0.8600 c3         1 GEL       0.238300
     12 O2          -0.7140     1.4090    -1.7840 os         1 GEL      -0.570400
     13 P2          -0.2000     1.9890    -3.2510 p5         1 GEL       1.404400
     14 O1P         -1.3780     2.5870    -3.9800 o          1 GEL      -0.845500
     15 O2P          1.0260     2.8450    -3.0460 o          1 GEL      -0.845500
     16 C22          0.2590     0.3820    -3.9830 c3         1 GEL      -0.426400
     17 C23          0.7320     0.5160    -5.4280 c3         1 GEL      -0.039400
     18 C24          1.1680    -0.8180    -6.0220 c3         1 GEL      -0.075400
     19 C25          1.6220    -0.7190    -7.4730 c3         1 GEL      -0.075400
     20 C26          2.0690    -2.0570    -8.0490 c3         1 GEL      -0.076400
     21 C27          2.5160    -1.9740    -9.5040 c3         1 GEL      -0.076400
     22 C28          2.9700    -3.3180   -10.0570 c3         1 GEL      -0.086100
     23 C3          -2.5920     1.7230    -0.3370 c3         1 GEL       0.231600
     24 O3          -2.3940     0.4440     0.2220 os         1 GEL      -0.572400
     25 P3          -3.4220    -0.1740     1.3290 p5         1 GEL       1.407800
     26 O3P         -4.0980    -1.3840     0.7530 o          1 GEL      -0.845500
     27 O4P         -4.2470     0.9130     1.9490 o          1 GEL      -0.845500
     28 O5P         -2.2550    -0.6700     2.3740 os         1 GEL      -0.589400
     29 C31         -2.6370    -1.5540     3.4130 c3         1 GEL       0.225600
     30 C32         -1.5500    -1.5630     4.4640 c3         1 GEL       0.146800
     31 N3          -1.4210    -0.2550     5.0850 n8         1 GEL      -1.002200
     32 H11         -0.8130     3.3590     0.9320 h1         1 GEL       0.010700
     33 H12          0.5010     3.3040    -0.2430 h1         1 GEL       0.010700
     34 H111         0.1140     2.3110     2.7740 h1         1 GEL      -0.004300
     35 H112         1.6570     2.5910     1.9660 h1         1 GEL      -0.004300
     36 H121         2.1630     0.1630     2.0390 hc         1 GEL       0.065700
     37 H122         0.5700    -0.1610     2.7040 hc         1 GEL       0.065700
     38 H131         1.1580     1.2280     4.7250 hc         1 GEL       0.027200
     39 H132         2.7540     1.5000     4.0640 hc         1 GEL       0.027200
     40 H141         3.2040    -0.9540     4.1110 hc         1 GEL       0.040700
     41 H142         1.5900    -1.2460     4.7220 hc         1 GEL       0.040700
     42 H151         2.1070     0.0710     6.7740 hc         1 GEL       0.032200
     43 H152         3.7160     0.4050     6.1680 hc         1 GEL       0.032200
     44 H161         4.2290    -2.0400     6.1590 hc         1 GEL       0.037200
     45 H162         2.6170    -2.3860     6.7480 hc         1 GEL       0.037200
     46 H171         3.0910    -1.0810     8.8250 hc         1 GEL       0.033200
     47 H172         4.6980    -0.7190     8.2380 hc         1 GEL       0.033200
     48 H181         4.7650    -2.6390     9.8330 hc         1 GEL       0.026033
     49 H182         3.6450    -3.5420     8.8170 hc         1 GEL       0.026033
     50 H183         5.2610    -3.1650     8.2270 hc         1 GEL       0.026033
     51 H2          -1.5880     3.2490    -1.3460 h1         1 GEL       0.017700
     52 H221         1.0480    -0.0750    -3.3780 hc         1 GEL       0.054200
     53 H222        -0.6000    -0.2940    -3.9390 hc         1 GEL       0.054200
     54 H231        -0.0700     0.9410    -6.0390 hc         1 GEL       0.035700
     55 H232         1.5650     1.2240    -5.4790 hc         1 GEL       0.035700
     56 H241         1.9790    -1.2340    -5.4140 hc         1 GEL       0.029700
     57 H242         0.3400    -1.5320    -5.9500 hc         1 GEL       0.029700
     58 H251         0.8070    -0.3140    -8.0830 hc         1 GEL       0.031700
     59 H252         2.4450     0.0010    -7.5490 hc         1 GEL       0.031700
     60 H261         2.8880    -2.4570    -7.4410 hc         1 GEL       0.032700
     61 H262         1.2490    -2.7790    -7.9640 hc         1 GEL       0.032700
     62 H271         1.6940    -1.5830   -10.1130 hc         1 GEL       0.032700
     63 H272         3.3300    -1.2480    -9.5920 hc         1 GEL       0.032700
     64 H281         3.2840    -3.2400   -11.0990 hc         1 GEL       0.022700
     65 H282         3.8130    -3.7110    -9.4860 hc         1 GEL       0.022700
     66 H283         2.1680    -4.0560   -10.0080 hc         1 GEL       0.022700
     67 H31         -3.0170     2.4190     0.3910 h1         1 GEL       0.015200
     68 H32         -3.2980     1.6630    -1.1740 h1         1 GEL       0.015200
     69 H311        -3.5810    -1.2410     3.8760 h1         1 GEL       0.020200
     70 H312        -2.7800    -2.5690     3.0270 h1         1 GEL       0.020200
     71 H321        -1.8330    -2.2900     5.2290 h1         1 GEL       0.006700
     72 H322        -0.6210    -1.9350     4.0080 h1         1 GEL       0.006700
     73 HN31        -0.6690    -0.2680     5.7620 hn         1 GEL       0.390500
     74 HN32        -1.1540     0.4190     4.3790 hn         1 GEL       0.390500
@<TRIPOS>BOND
     1     1     2 1   
     2     1    11 1   
     3     1    32 1   
     4     1    33 1   
     5     2     3 1   
     6     3     4 1   
     7     3    34 1   
     8     3    35 1   
     9     4     5 1   
    10     4    36 1   
    11     4    37 1   
    12     5     6 1   
    13     5    38 1   
    14     5    39 1   
    15     6     7 1   
    16     6    40 1   
    17     6    41 1   
    18     7     8 1   
    19     7    42 1   
    20     7    43 1   
    21     8     9 1   
    22     8    44 1   
    23     8    45 1   
    24     9    10 1   
    25     9    46 1   
    26     9    47 1   
    27    10    48 1   
    28    10    49 1   
    29    10    50 1   
    30    11    12 1   
    31    11    23 1   
    32    11    51 1   
    33    12    13 1   
    34    13    14 1   
    35    13    15 1   
    36    13    16 1   
    37    16    17 1   
    38    16    52 1   
    39    16    53 1   
    40    17    18 1   
    41    17    54 1   
    42    17    55 1   
    43    18    19 1   
    44    18    56 1   
    45    18    57 1   
    46    19    20 1   
    47    19    58 1   
    48    19    59 1   
    49    20    21 1   
    50    20    60 1   
    51    20    61 1   
    52    21    22 1   
    53    21    62 1   
    54    21    63 1   
    55    22    64 1   
    56    22    65 1   
    57    22    66 1   
    58    23    24 1   
    59    23    67 1   
    60    23    68 1   
    61    24    25 1   
    62    25    26 1   
    63    25    27 1   
    64    25    28 1   
    65    28    29 1   
    66    29    30 1   
    67    29    69 1   
    68    29    70 1   
    69    30    31 1   
    70    30    71 1   
    71    30    72 1   
    72    31    73 1   
    73    31    74 1   
@<TRIPOS>SUBSTRUCTURE
     1 GEL         1 TEMP              0 ****  ****    0 ROOT
