@<TRIPOS>MOLECULE
GEN
   30    32     1     0     0
SMALL
No Charge or Current Charge


@<TRIPOS>ATOM
      1 C1          -1.2820     0.2950    -3.4410 ca         1 GEN      -0.292000
      2 C2          -0.2970     0.2420    -4.4300 ca         1 GEN       0.241100
      3 O2          -0.6410     0.3220    -5.7430 oh         1 GEN      -0.525100
      4 C3           1.0460     0.1070    -4.0730 ca         1 GEN      -0.241000
      5 C4           1.4060     0.0240    -2.7260 ca         1 GEN       0.280100
      6 O4           2.7170    -0.1080    -2.4050 oh         1 GEN      -0.537100
      7 C5           0.4240     0.0770    -1.7210 ca         1 GEN      -0.377600
      8 C6           0.7610    -0.0080    -0.2700 c          1 GEN       0.617900
      9 O6           1.9240    -0.1350     0.0980 o          1 GEN      -0.587100
     10 C7          -0.3830     0.0660     0.6620 cc         1 GEN      -0.204400
     11 C8          -1.6810     0.2040     0.2070 cd         1 GEN       0.043100
     12 O9          -1.9130     0.2670    -1.1430 os         1 GEN      -0.202200
     13 C10         -0.9210     0.2130    -2.0900 ca         1 GEN       0.229100
     14 C11         -0.2370     0.0120     2.1190 ca         1 GEN      -0.071800
     15 C12         -0.9860    -0.9080     2.8820 ca         1 GEN      -0.052500
     16 C13         -0.8420    -0.9520     4.2800 ca         1 GEN      -0.176000
     17 C14          0.0460    -0.0810     4.9250 ca         1 GEN       0.147100
     18 O14          0.1770    -0.1320     6.2800 oh         1 GEN      -0.533100
     19 C15          0.7970     0.8370     4.1740 ca         1 GEN      -0.176000
     20 C16          0.6560     0.8830     2.7750 ca         1 GEN      -0.052500
     21 H1          -2.3300     0.4000    -3.7060 ha         1 GEN       0.138000
     22 H2          -1.6150     0.4130    -5.7950 ho         1 GEN       0.475000
     23 H3           1.8100     0.0650    -4.8430 ha         1 GEN       0.153000
     24 H4           2.7400    -0.1510    -1.4150 ho         1 GEN       0.524000
     25 H8          -2.5800     0.2790     0.8130 h4         1 GEN       0.235000
     26 H12         -1.6720    -1.5960     2.3920 ha         1 GEN       0.117500
     27 H13         -1.4210    -1.6650     4.8620 ha         1 GEN       0.122000
     28 H14          0.8360     0.5410     6.5530 ho         1 GEN       0.466000
     29 H15          1.4890     1.5180     4.6640 ha         1 GEN       0.122000
     30 H16          1.2380     1.6010     2.2010 ha         1 GEN       0.117500
@<TRIPOS>BOND
     1     1     2 ar  
     2     1    13 ar  
     3     1    21 1   
     4     2     3 1   
     5     2     4 ar  
     6     3    22 1   
     7     4     5 ar  
     8     4    23 1   
     9     5     6 1   
    10     5     7 ar  
    11     6    24 1   
    12     7     8 1   
    13     7    13 ar  
    14     8     9 2   
    15     8    10 1   
    16    10    11 2   
    17    10    14 1   
    18    11    12 1   
    19    11    25 1   
    20    12    13 1   
    21    14    15 ar  
    22    14    20 ar  
    23    15    16 ar  
    24    15    26 1   
    25    16    17 ar  
    26    16    27 1   
    27    17    18 1   
    28    17    19 ar  
    29    18    28 1   
    30    19    20 ar  
    31    19    29 1   
    32    20    30 1   
@<TRIPOS>SUBSTRUCTURE
     1 GEN         1 TEMP              0 ****  ****    0 ROOT
