@<TRIPOS>MOLECULE
GEN
   30    32     1     0     0
SMALL
bcc


@<TRIPOS>ATOM
      1 C1          -1.3190     0.1880    -3.4310 ca         1 GEN      -0.310000
      2 C2          -0.3040     0.1620    -4.3790 ca         1 GEN       0.241100
      3 O2          -0.5760     0.1390    -5.6950 oh         1 GEN      -0.486100
      4 C3           1.0410     0.1280    -4.0040 ca         1 GEN      -0.259000
      5 C4           1.3850     0.0890    -2.6660 ca         1 GEN       0.280100
      6 O4           2.6690     0.0560    -2.3220 oh         1 GEN      -0.498100
      7 C5           0.3720     0.1190    -1.6730 ca         1 GEN      -0.377600
      8 C6           0.6980     0.0490    -0.2660 c          1 GEN       0.617900
      9 O6           1.8690    -0.0500     0.1190 o          1 GEN      -0.587100
     10 C7          -0.4360     0.1150     0.6470 cc         1 GEN      -0.204400
     11 C8          -1.6740     0.1860     0.1160 cd         1 GEN       0.093100
     12 O9          -1.9520     0.2240    -1.1870 os         1 GEN      -0.202200
     13 C10         -0.9560     0.1840    -2.0950 ca         1 GEN       0.229100
     14 C11         -0.2650     0.0850     2.1100 ca         1 GEN      -0.071800
     15 C12         -1.0500    -0.7670     2.8890 ca         1 GEN      -0.070500
     16 C13         -0.8780    -0.8650     4.2590 ca         1 GEN      -0.194000
     17 C14          0.1180    -0.1250     4.8870 ca         1 GEN       0.147100
     18 O14          0.3170    -0.3170     6.2070 oh         1 GEN      -0.494100
     19 C15          0.8700     0.7750     4.1370 ca         1 GEN      -0.194000
     20 C16          0.6750     0.8820     2.7690 ca         1 GEN      -0.070500
     21 H1          -2.3640     0.2070    -3.7140 ha         1 GEN       0.156000
     22 H2          -1.4790     0.4270    -5.8710 ho         1 GEN       0.436000
     23 H3           1.8130     0.1100    -4.7630 ha         1 GEN       0.171000
     24 H4           2.7140    -0.0190    -1.3410 ho         1 GEN       0.485000
     25 H8          -2.5710     0.2850     0.7120 h4         1 GEN       0.185000
     26 H12         -1.7770    -1.4150     2.4150 ha         1 GEN       0.135500
     27 H13         -1.5040    -1.5390     4.8330 ha         1 GEN       0.140000
     28 H14          0.9150     0.3510     6.5600 ho         1 GEN       0.427000
     29 H15          1.6110     1.4010     4.6210 ha         1 GEN       0.140000
     30 H16          1.3050     1.5630     2.2140 ha         1 GEN       0.135500
@<TRIPOS>BOND
     1     1     2 ar  
     2     1    13 ar  
     3     1    21 1   
     4     2     3 1   
     5     2     4 ar  
     6     3    22 1   
     7     4     5 ar  
     8     4    23 1   
     9     5     6 1   
    10     5     7 ar  
    11     6    24 1   
    12     7     8 1   
    13     7    13 ar  
    14     8     9 2   
    15     8    10 1   
    16    10    11 2   
    17    10    14 1   
    18    11    12 1   
    19    11    25 1   
    20    12    13 1   
    21    14    15 ar  
    22    14    20 ar  
    23    15    16 ar  
    24    15    26 1   
    25    16    17 ar  
    26    16    27 1   
    27    17    18 1   
    28    17    19 ar  
    29    18    28 1   
    30    19    20 ar  
    31    19    29 1   
    32    20    30 1   
@<TRIPOS>SUBSTRUCTURE
     1 GEN         1 TEMP              0 ****  ****    0 ROOT
