@<TRIPOS>MOLECULE
GEO
   29    30     1     0     0
SMALL
abcg2


@<TRIPOS>ATOM
      1 O5          -3.2150     2.6970    -0.6280 oh         1 GEO      -0.710000
      2 C5          -2.9170     1.6960     0.3150 c3         1 GEO       0.164600
      3 C4          -2.4010     0.4790    -0.4090 c5         1 GEO       0.171300
      4 O4          -1.1400     0.7600    -1.0070 os         1 GEO      -0.419000
      5 C1          -0.3300    -0.3720    -1.0440 c5         1 GEO       0.294700
      6 N1           1.0180    -0.0700    -0.6250 n          1 GEO      -0.323000
      7 C6           2.0380    -0.2960    -1.4940 cc         1 GEO       0.029600
      8 C7           3.3160    -0.0380    -1.1670 cd         1 GEO      -0.474600
      9 C8           3.5430     0.4950     0.1410 cd         1 GEO       0.789500
     10 N3           2.5560     0.7230     0.9850 nc         1 GEO      -0.772100
     11 C2           1.2780     0.4510     0.6580 c          1 GEO       0.731400
     12 O2           0.3450     0.6360     1.4240 o          1 GEO      -0.557000
     13 N4           4.7840     0.7770     0.5270 nv         1 GEO      -1.031200
     14 C9          -1.0560    -1.4500    -0.2090 c5         1 GEO       0.114000
     15 F1          -0.2200    -2.1390     0.6000 f          1 GEO      -0.099000
     16 F2          -1.5820    -2.3660    -1.0670 f          1 GEO      -0.099000
     17 C3          -2.1810    -0.7160     0.5180 c5         1 GEO       0.097300
     18 O3          -3.3610    -1.4460     0.6460 oh         1 GEO      -0.689000
     19 H5          -3.5970     3.4450    -0.1610 ho         1 GEO       0.506000
     20 H5'1        -3.8080     1.3870     0.8770 h1         1 GEO       0.041200
     21 H5'2        -2.1660     2.0230     1.0440 h1         1 GEO       0.041200
     22 H4          -3.1210     0.1890    -1.1880 h1         1 GEO       0.081700
     23 H1          -0.2420    -0.7470    -2.0690 h2         1 GEO       0.076700
     24 H6           1.7650    -0.6920    -2.4630 h4         1 GEO       0.202000
     25 H2           4.1200    -0.2180    -1.8650 ha         1 GEO       0.205000
     26 HN41         4.9560     1.1520     1.4440 hn         1 GEO       0.503000
     27 HN42         5.5730     0.6100    -0.0720 hn         1 GEO       0.503000
     28 H3          -1.7960    -0.3760     1.4830 h1         1 GEO       0.099700
     29 H7          -3.3370    -1.9390     1.4720 ho         1 GEO       0.521000
@<TRIPOS>BOND
     1     1     2 1   
     2     1    19 1   
     3     2     3 1   
     4     2    20 1   
     5     2    21 1   
     6     3     4 1   
     7     3    17 1   
     8     3    22 1   
     9     4     5 1   
    10     5     6 1   
    11     5    14 1   
    12     5    23 1   
    13     6     7 1   
    14     6    11 1   
    15     7     8 2   
    16     7    24 1   
    17     8     9 1   
    18     8    25 1   
    19     9    10 2   
    20     9    13 1   
    21    10    11 1   
    22    11    12 2   
    23    13    26 1   
    24    13    27 1   
    25    14    15 1   
    26    14    16 1   
    27    14    17 1   
    28    17    18 1   
    29    17    28 1   
    30    18    29 1   
@<TRIPOS>SUBSTRUCTURE
     1 GEO         1 TEMP              0 ****  ****    0 ROOT
