@<TRIPOS>MOLECULE
GEO
   29    30     1     0     0
SMALL
No Charge or Current Charge


@<TRIPOS>ATOM
      1 O5          -3.7190     2.6480    -0.6780 oh         1 GEO      -0.710000
      2 C5          -3.2920     1.6680     0.2910 c3         1 GEO       0.164600
      3 C4          -2.4470     0.5430    -0.3700 c5         1 GEO       0.171300
      4 O4          -1.1430     1.0370    -0.7500 os         1 GEO      -0.419000
      5 C1          -0.3280    -0.1170    -1.0370 c5         1 GEO       0.294700
      6 N1           1.0980     0.0500    -0.6250 n          1 GEO      -0.323000
      7 C6           2.0920    -0.4340    -1.4710 cc         1 GEO       0.029600
      8 C7           3.4100    -0.2400    -1.1340 cd         1 GEO      -0.474600
      9 C8           3.6710     0.4480     0.0660 cd         1 GEO       0.789500
     10 N3           2.7650     0.8870     0.8700 nc         1 GEO      -0.772100
     11 C2           1.4380     0.7130     0.5800 c          1 GEO       0.731400
     12 O2           0.6110     1.1100     1.3840 o          1 GEO      -0.557000
     13 N4           4.9120     0.6630     0.4530 nv         1 GEO      -1.031200
     14 C9          -0.9760    -1.3390    -0.2810 c5         1 GEO       0.114000
     15 F1          -0.0830    -2.0500     0.5270 f          1 GEO      -0.099000
     16 F2          -1.5200    -2.2400    -1.1990 f          1 GEO      -0.099000
     17 C3          -2.0890    -0.6440     0.5740 c5         1 GEO       0.097300
     18 O3          -3.2130    -1.4950     0.8740 oh         1 GEO      -0.689000
     19 H5          -4.1960     3.3540    -0.1830 ho         1 GEO       0.506000
     20 H5'1        -4.1680     1.2080     0.7690 h1         1 GEO       0.041200
     21 H5'2        -2.6940     2.1400     1.0830 h1         1 GEO       0.041200
     22 H4          -2.9730     0.1840    -1.2660 h1         1 GEO       0.081700
     23 H1          -0.3320    -0.3020    -2.1190 h2         1 GEO       0.076700
     24 H6           1.7230    -0.9400    -2.3610 h4         1 GEO       0.202000
     25 H2           4.2160    -0.5920    -1.7650 ha         1 GEO       0.205000
     26 HN41         4.9840     0.9100     1.4300 hn         1 GEO       0.503000
     27 HN42         5.6010     0.0060     0.1140 hn         1 GEO       0.503000
     28 H3          -1.6530    -0.2500     1.5050 h1         1 GEO       0.099700
     29 H7          -2.8730    -2.2700     1.3830 ho         1 GEO       0.521000
@<TRIPOS>BOND
     1     1     2 1   
     2     1    19 1   
     3     2     3 1   
     4     2    20 1   
     5     2    21 1   
     6     3     4 1   
     7     3    17 1   
     8     3    22 1   
     9     4     5 1   
    10     5     6 1   
    11     5    14 1   
    12     5    23 1   
    13     6     7 1   
    14     6    11 1   
    15     7     8 2   
    16     7    24 1   
    17     8     9 1   
    18     8    25 1   
    19     9    10 2   
    20     9    13 1   
    21    10    11 1   
    22    11    12 2   
    23    13    26 1   
    24    13    27 1   
    25    14    15 1   
    26    14    16 1   
    27    14    17 1   
    28    17    18 1   
    29    17    28 1   
    30    18    29 1   
@<TRIPOS>SUBSTRUCTURE
     1 GEO         1 TEMP              0 ****  ****    0 ROOT
