@<TRIPOS>MOLECULE
GEP
   52    53     1     0     0
SMALL
bcc


@<TRIPOS>ATOM
      1 N1           5.3980     0.1010     0.0430 n4         1 GEP      -0.615800
      2 C2           5.7390    -1.2780     0.5390 c6         1 GEP       0.129300
      3 C3           7.2290    -1.5600     0.5240 c6         1 GEP      -0.100400
      4 C4           7.8190    -1.3670    -0.8650 c6         1 GEP      -0.085400
      5 C5           7.4940     0.0280    -1.3760 c6         1 GEP      -0.100400
      6 C6           6.0030     0.3020    -1.3250 c6         1 GEP       0.129300
      7 C7           5.8990     1.1400     0.9830 c3         1 GEP       0.105100
      8 C8           3.9070     0.2380    -0.1160 c3         1 GEP       0.122800
      9 C9           3.0910     0.1140     1.1650 c3         1 GEP      -0.024100
     10 C10          1.6330     0.2650     0.8230 ca         1 GEP      -0.187300
     11 C11          0.8060    -0.8410     0.6790 ca         1 GEP      -0.085000
     12 C12         -0.5350    -0.7190     0.3410 ca         1 GEP      -0.174000
     13 C13         -1.0820     0.5470     0.1290 ca         1 GEP       0.129600
     14 C14         -0.2540     1.6650     0.2660 ca         1 GEP      -0.174000
     15 C15          1.0780     1.5240     0.6070 ca         1 GEP      -0.085000
     16 N16         -2.4110     0.7890    -0.2250 ns         1 GEP      -0.480100
     17 C17         -3.4600    -0.0740    -0.2940 c          1 GEP       0.671100
     18 O18         -3.3760    -1.2580    -0.0180 o          1 GEP      -0.564100
     19 C19         -4.7440     0.5580    -0.7800 c3         1 GEP      -0.157400
     20 C20         -5.9960    -0.0330    -0.1430 c3         1 GEP      -0.045400
     21 C21         -7.2530     0.5980    -0.7170 c3         1 GEP      -0.211400
     22 C22         -8.5860     0.0840    -0.1450 c          1 GEP       0.930600
     23 O23         -9.6190     0.5820    -0.6400 o          1 GEP      -0.836300
     24 O24         -8.5410    -0.7760     0.7560 o          1 GEP      -0.836300
     25 H21          5.3370    -1.3780     1.5450 hx         1 GEP       0.093450
     26 H22          5.2090    -1.9780    -0.1100 hx         1 GEP       0.093450
     27 H31          7.3560    -2.5890     0.8640 hc         1 GEP       0.078200
     28 H32          7.7460    -0.9330     1.2540 hc         1 GEP       0.078200
     29 H41          7.4020    -2.1150    -1.5460 hc         1 GEP       0.074200
     30 H42          8.8980    -1.5220    -0.8440 hc         1 GEP       0.074200
     31 H51          7.7920     0.1410    -2.4190 hc         1 GEP       0.078200
     32 H52          8.0520     0.7830    -0.8190 hc         1 GEP       0.078200
     33 H61          5.4750    -0.3770    -1.9950 hx         1 GEP       0.093450
     34 H62          5.7710     1.3220    -1.6300 hx         1 GEP       0.093450
     35 H71          5.5180     2.1100     0.6720 hx         1 GEP       0.091367
     36 H72          5.5660     0.9170     1.9910 hx         1 GEP       0.091367
     37 H73          6.9830     1.1660     0.9730 hx         1 GEP       0.091367
     38 H81          3.7400     1.2140    -0.5750 hx         1 GEP       0.092700
     39 H82          3.6020    -0.5250    -0.8320 hx         1 GEP       0.092700
     40 H91          3.2540    -0.8550     1.6380 hc         1 GEP       0.058700
     41 H92          3.3760     0.8810     1.8860 hc         1 GEP       0.058700
     42 H11          1.2080    -1.8350     0.8410 ha         1 GEP       0.120000
     43 H12         -1.1380    -1.6070     0.2450 ha         1 GEP       0.163000
     44 H14         -0.6590     2.6580     0.1060 ha         1 GEP       0.163000
     45 H15          1.6900     2.4120     0.7130 ha         1 GEP       0.120000
     46 HN6         -2.6210     1.7520    -0.4370 hn         1 GEP       0.322500
     47 H191        -4.7250     1.6410    -0.6300 hc         1 GEP       0.051200
     48 H192        -4.7810     0.4100    -1.8660 hc         1 GEP       0.051200
     49 H201        -6.0150    -1.1130    -0.3010 hc         1 GEP       0.058700
     50 H202        -5.9620     0.1200     0.9380 hc         1 GEP       0.058700
     51 H211        -7.2190     1.6850    -0.5750 hc         1 GEP       0.015200
     52 H212        -7.2700     0.4600    -1.8050 hc         1 GEP       0.015200
@<TRIPOS>BOND
     1     1     2 1   
     2     1     6 1   
     3     1     7 1   
     4     1     8 1   
     5     2     3 1   
     6     2    25 1   
     7     2    26 1   
     8     3     4 1   
     9     3    27 1   
    10     3    28 1   
    11     4     5 1   
    12     4    29 1   
    13     4    30 1   
    14     5     6 1   
    15     5    31 1   
    16     5    32 1   
    17     6    33 1   
    18     6    34 1   
    19     7    35 1   
    20     7    36 1   
    21     7    37 1   
    22     8     9 1   
    23     8    38 1   
    24     8    39 1   
    25     9    10 1   
    26     9    40 1   
    27     9    41 1   
    28    10    11 ar  
    29    10    15 ar  
    30    11    12 ar  
    31    11    42 1   
    32    12    13 ar  
    33    12    43 1   
    34    13    14 ar  
    35    13    16 1   
    36    14    15 ar  
    37    14    44 1   
    38    15    45 1   
    39    16    17 1   
    40    16    46 1   
    41    17    18 2   
    42    17    19 1   
    43    19    20 1   
    44    19    47 1   
    45    19    48 1   
    46    20    21 1   
    47    20    49 1   
    48    20    50 1   
    49    21    22 1   
    50    21    51 1   
    51    21    52 1   
    52    22    23 1   
    53    22    24 1   
@<TRIPOS>SUBSTRUCTURE
     1 GEP         1 TEMP              0 ****  ****    0 ROOT
