@<TRIPOS>MOLECULE
GEP
   52    53     1     0     0
SMALL
No Charge or Current Charge


@<TRIPOS>ATOM
      1 N1           5.4220     0.1040     0.0530 n4         1 GEP      -0.503000
      2 C2           5.7460    -1.3020     0.6350 c6         1 GEP       0.101100
      3 C3           7.2580    -1.6170     0.6940 c6         1 GEP      -0.100400
      4 C4           7.9090    -1.4650    -0.7000 c6         1 GEP      -0.085400
      5 C5           7.6410    -0.0590    -1.2870 c6         1 GEP      -0.100400
      6 C6           6.1250     0.2430    -1.3260 c6         1 GEP       0.101100
      7 C7           5.9100     1.2100     1.0050 c3         1 GEP       0.076900
      8 C8           3.9060     0.2510    -0.1610 c3         1 GEP       0.094600
      9 C9           2.9810     0.1190     1.0680 c3         1 GEP      -0.024100
     10 C10          1.5190     0.2730     0.6760 ca         1 GEP      -0.187300
     11 C11          0.8000    -0.8280     0.1770 ca         1 GEP      -0.067000
     12 C12         -0.5480    -0.6880    -0.1940 ca         1 GEP      -0.156000
     13 C13         -1.1980     0.5600    -0.0740 ca         1 GEP       0.037000
     14 C14         -0.4720     1.6560     0.4290 ca         1 GEP      -0.156000
     15 C15          0.8760     1.5170     0.7990 ca         1 GEP      -0.067000
     16 N16         -2.5580     0.7770    -0.4240 ns         1 GEP      -0.154000
     17 C17         -3.5110    -0.0380    -1.0210 c          1 GEP       0.604100
     18 O18         -3.3000    -1.1790    -1.4120 o          1 GEP      -0.564100
     19 C19         -4.8840     0.6270    -1.2010 c3         1 GEP      -0.157400
     20 C20         -5.9300     0.0540    -0.2150 c3         1 GEP      -0.045400
     21 C21         -7.3250     0.7100    -0.3630 c3         1 GEP      -0.211400
     22 C22         -8.3110     0.0920     0.6440 c          1 GEP       0.720000
     23 O23         -8.9330    -0.9020     0.3040 o          1 GEP      -0.731000
     24 O24         -8.3840     0.5910     1.7570 o          1 GEP      -0.731000
     25 H21          5.2940    -1.3520     1.6310 hx         1 GEP       0.093450
     26 H22          5.2320    -2.0270    -0.0040 hx         1 GEP       0.093450
     27 H31          7.4060    -2.6390     1.0680 hc         1 GEP       0.078200
     28 H32          7.7500    -0.9510     1.4150 hc         1 GEP       0.078200
     29 H41          7.5090    -2.2300    -1.3800 hc         1 GEP       0.074200
     30 H42          8.9910    -1.6430    -0.6320 hc         1 GEP       0.074200
     31 H51          8.0550     0.0090    -2.3020 hc         1 GEP       0.078200
     32 H52          8.1590     0.7040    -0.6910 hc         1 GEP       0.078200
     33 H61          5.6200    -0.4550    -2.0010 hx         1 GEP       0.093450
     34 H62          5.9310     1.2580    -1.6870 hx         1 GEP       0.093450
     35 H71          5.6550     2.1850     0.5840 hx         1 GEP       0.091367
     36 H72          5.4280     1.0900     1.9770 hx         1 GEP       0.091367
     37 H73          6.9920     1.1340     1.1250 hx         1 GEP       0.091367
     38 H81          3.7340     1.2310    -0.6120 hx         1 GEP       0.092700
     39 H82          3.6070    -0.5030    -0.8910 hx         1 GEP       0.092700
     40 H91          3.1390    -0.8570     1.5400 hc         1 GEP       0.058700
     41 H92          3.2550     0.8730     1.8150 hc         1 GEP       0.058700
     42 H11          1.2860    -1.7960     0.0760 ha         1 GEP       0.102000
     43 H12         -1.0690    -1.5640    -0.5660 ha         1 GEP       0.145000
     44 H14         -0.9540     2.6260     0.5310 ha         1 GEP       0.145000
     45 H15          1.4190     2.3800     1.1810 ha         1 GEP       0.102000
     46 HN6         -2.8970     1.7000    -0.1870 hn         1 GEP       0.156000
     47 H191        -4.8030     1.7080    -1.0320 hc         1 GEP       0.051200
     48 H192        -5.2320     0.4400    -2.2240 hc         1 GEP       0.051200
     49 H201        -6.0220    -1.0290    -0.3730 hc         1 GEP       0.058700
     50 H202        -5.5720     0.1950     0.8140 hc         1 GEP       0.058700
     51 H211        -7.1790     1.7770    -0.1530 hc         1 GEP       0.015200
     52 H212        -7.6470     0.5030    -1.3920 hc         1 GEP       0.015200
@<TRIPOS>BOND
     1     1     2 1   
     2     1     6 1   
     3     1     7 1   
     4     1     8 1   
     5     2     3 1   
     6     2    25 1   
     7     2    26 1   
     8     3     4 1   
     9     3    27 1   
    10     3    28 1   
    11     4     5 1   
    12     4    29 1   
    13     4    30 1   
    14     5     6 1   
    15     5    31 1   
    16     5    32 1   
    17     6    33 1   
    18     6    34 1   
    19     7    35 1   
    20     7    36 1   
    21     7    37 1   
    22     8     9 1   
    23     8    38 1   
    24     8    39 1   
    25     9    10 1   
    26     9    40 1   
    27     9    41 1   
    28    10    11 ar  
    29    10    15 ar  
    30    11    12 ar  
    31    11    42 1   
    32    12    13 ar  
    33    12    43 1   
    34    13    14 ar  
    35    13    16 1   
    36    14    15 ar  
    37    14    44 1   
    38    15    45 1   
    39    16    17 1   
    40    16    46 1   
    41    17    18 2   
    42    17    19 1   
    43    19    20 1   
    44    19    47 1   
    45    19    48 1   
    46    20    21 1   
    47    20    49 1   
    48    20    50 1   
    49    21    22 1   
    50    21    51 1   
    51    21    52 1   
    52    22    23 1   
    53    22    24 1   
@<TRIPOS>SUBSTRUCTURE
     1 GEP         1 TEMP              0 ****  ****    0 ROOT
