@<TRIPOS>MOLECULE
GEQ
   53    58     1     0     0
SMALL
abcg2


@<TRIPOS>ATOM
      1 C1A          0.5050     1.0600    -3.7870 ca         1 GEQ      -0.027000
      2 C2A         -0.6120     0.4240    -3.2720 ca         1 GEQ      -0.175600
      3 C3A         -1.0080    -0.8370    -3.7600 ca         1 GEQ      -0.051000
      4 C4A         -0.2840    -1.4910    -4.7330 ca         1 GEQ      -0.136000
      5 C5A          0.8410    -0.8460    -5.2460 ca         1 GEQ      -0.036200
      6 C6A          1.2440     0.4310    -4.7920 ca         1 GEQ      -0.111800
      7 C7A          2.4130     0.7840    -5.5360 cc         1 GEQ      -0.233200
      8 C8A          2.6660    -0.2580    -6.3790 cd         1 GEQ      -0.164100
      9 N9A          1.7260    -1.2340    -6.2050 na         1 GEQ      -0.222700
     10 C1B         -1.4980     1.1020    -2.2790 c          1 GEQ       0.617700
     11 O2B         -2.7010     1.1810    -2.5010 o          1 GEQ      -0.601100
     12 N1C         -0.9220     1.6460    -1.1810 n          1 GEQ      -0.402800
     13 C2C         -1.7260     2.3910    -0.2280 c6         1 GEQ       0.091500
     14 C3C         -1.9650     1.5680     1.0280 c6         1 GEQ       0.149800
     15 N4C         -0.6900     1.1790     1.5980 n3         1 GEQ      -0.730600
     16 C5C          0.1020     0.4130     0.6590 c6         1 GEQ       0.149800
     17 C6C          0.3450     1.2160    -0.6110 c6         1 GEQ       0.091500
     18 C1D         -0.7570     0.6120     2.9280 c5         1 GEQ       0.284100
     19 C1E          0.5810     0.6580     3.6310 ca         1 GEQ      -0.104300
     20 C2E          1.4290     1.7370     3.7810 ca         1 GEQ      -0.084500
     21 C3E          2.6180     1.5600     4.4840 ca         1 GEQ      -0.111500
     22 C4E          2.9450     0.3160     5.0190 ca         1 GEQ      -0.110000
     23 C5E          2.0970    -0.7730     4.8560 ca         1 GEQ      -0.088000
     24 C6E          0.9140    -0.5930     4.1520 cp         1 GEQ      -0.037000
     25 C1F         -1.1310    -0.8580     3.0730 ca         1 GEQ      -0.104300
     26 C2F         -2.2530    -1.5320     2.6230 ca         1 GEQ      -0.084500
     27 C3F         -2.3750    -2.8930     2.8890 ca         1 GEQ      -0.111500
     28 C4F         -1.3950    -3.5660     3.6120 ca         1 GEQ      -0.110000
     29 C5F         -0.2740    -2.8910     4.0790 ca         1 GEQ      -0.088000
     30 C6F         -0.1470    -1.5380     3.8000 cp         1 GEQ      -0.037000
     31 H1A          0.7980     2.0400    -3.4280 ha         1 GEQ       0.122000
     32 H3A         -1.8930    -1.3100    -3.3530 ha         1 GEQ       0.125000
     33 H4A         -0.5840    -2.4690    -5.0880 ha         1 GEQ       0.117000
     34 H7A          2.9880     1.6920    -5.4570 ha         1 GEQ       0.207000
     35 H8A          3.4570    -0.3850    -7.1010 h4         1 GEQ       0.213000
     36 H9A          1.7000    -2.1040    -6.7100 hn         1 GEQ       0.350000
     37 H2C1        -1.1850     3.3040     0.0360 h1         1 GEQ       0.064200
     38 H2C2        -2.6710     2.6770    -0.6810 h1         1 GEQ       0.064200
     39 H3C1        -2.5130     2.1730     1.7540 h1         1 GEQ       0.044950
     40 H3C2        -2.6040     0.7100     0.7680 h1         1 GEQ       0.044950
     41 H5C1         1.0690     0.1740     1.1070 h1         1 GEQ       0.044950
     42 H5C2        -0.3770    -0.5420     0.3880 h1         1 GEQ       0.044950
     43 H6C1         0.9000     0.6080    -1.3180 h1         1 GEQ       0.064200
     44 H6C2         0.9490     2.0980    -0.3790 h1         1 GEQ       0.064200
     45 H1D         -1.4760     1.2160     3.4960 h1         1 GEQ       0.081700
     46 H2E          1.1760     2.7010     3.3570 ha         1 GEQ       0.121000
     47 H3E          3.2950     2.3940     4.6150 ha         1 GEQ       0.113500
     48 H4E          3.8720     0.1960     5.5640 ha         1 GEQ       0.112500
     49 H5E          2.3640    -1.7380     5.2680 ha         1 GEQ       0.116000
     50 H2F         -3.0330    -1.0190     2.0750 ha         1 GEQ       0.121000
     51 H3F         -3.2450    -3.4320     2.5350 ha         1 GEQ       0.113500
     52 H4F         -1.5110    -4.6220     3.8170 ha         1 GEQ       0.112500
     53 H5F          0.4820    -3.4180     4.6490 ha         1 GEQ       0.116000
@<TRIPOS>BOND
     1     1     2 ar  
     2     1     6 ar  
     3     1    31 1   
     4     2     3 ar  
     5     2    10 1   
     6     3     4 ar  
     7     3    32 1   
     8     4     5 ar  
     9     4    33 1   
    10     5     6 ar  
    11     5     9 1   
    12     6     7 1   
    13     7     8 2   
    14     7    34 1   
    15     8     9 1   
    16     8    35 1   
    17     9    36 1   
    18    10    11 2   
    19    10    12 1   
    20    12    13 1   
    21    12    17 1   
    22    13    14 1   
    23    13    37 1   
    24    13    38 1   
    25    14    15 1   
    26    14    39 1   
    27    14    40 1   
    28    15    16 1   
    29    15    18 1   
    30    16    17 1   
    31    16    41 1   
    32    16    42 1   
    33    17    43 1   
    34    17    44 1   
    35    18    19 1   
    36    18    25 1   
    37    18    45 1   
    38    19    20 ar  
    39    19    24 ar  
    40    20    21 ar  
    41    20    46 1   
    42    21    22 ar  
    43    21    47 1   
    44    22    23 ar  
    45    22    48 1   
    46    23    24 ar  
    47    23    49 1   
    48    24    30 1   
    49    25    26 ar  
    50    25    30 ar  
    51    26    27 ar  
    52    26    50 1   
    53    27    28 ar  
    54    27    51 1   
    55    28    29 ar  
    56    28    52 1   
    57    29    30 ar  
    58    29    53 1   
@<TRIPOS>SUBSTRUCTURE
     1 GEQ         1 TEMP              0 ****  ****    0 ROOT
