@<TRIPOS>MOLECULE
GEQ
   53    58     1     0     0
SMALL
No Charge or Current Charge


@<TRIPOS>ATOM
      1 C1A          0.5160     0.8840    -3.7450 ca         1 GEQ      -0.027000
      2 C2A         -0.6840     0.2210    -3.3790 ca         1 GEQ      -0.175600
      3 C3A         -1.0820    -0.9370    -4.1020 ca         1 GEQ      -0.051000
      4 C4A         -0.2820    -1.4510    -5.1450 ca         1 GEQ      -0.136000
      5 C5A          0.9070    -0.7820    -5.4590 ca         1 GEQ      -0.036200
      6 C6A          1.2820     0.3430    -4.7850 ca         1 GEQ      -0.111800
      7 C7A          2.5160     0.7870    -5.3570 cc         1 GEQ      -0.233200
      8 C8A          2.8400    -0.1080    -6.3700 cd         1 GEQ      -0.164100
      9 N9A          1.8310    -1.1020    -6.4410 na         1 GEQ      -0.222700
     10 C1B         -1.5800     0.7560    -2.2830 c          1 GEQ       0.617700
     11 O2B         -2.7960     0.6230    -2.3590 o          1 GEQ      -0.601100
     12 N1C         -0.9980     1.4960    -1.2300 n          1 GEQ      -0.402800
     13 C2C         -1.8370     2.2890    -0.2880 c6         1 GEQ       0.091500
     14 C3C         -2.0190     1.5750     1.0780 c6         1 GEQ       0.149800
     15 N4C         -0.7080     1.2410     1.7020 n3         1 GEQ      -0.730600
     16 C5C          0.1260     0.4230     0.7700 c6         1 GEQ       0.149800
     17 C6C          0.3060     1.1040    -0.6160 c6         1 GEQ       0.091500
     18 C1D         -0.7760     0.7450     3.1140 c5         1 GEQ       0.284100
     19 C1E          0.6270     0.7780     3.7440 ca         1 GEQ      -0.104300
     20 C2E          1.5120     1.8470     3.9410 ca         1 GEQ      -0.084500
     21 C3E          2.7590     1.5730     4.5410 ca         1 GEQ      -0.111500
     22 C4E          3.0950     0.2540     4.9270 ca         1 GEQ      -0.110000
     23 C5E          2.1890    -0.8070     4.7160 ca         1 GEQ      -0.088000
     24 C6E          0.9440    -0.5300     4.1160 cp         1 GEQ      -0.037000
     25 C1F         -1.2200    -0.7320     3.2120 ca         1 GEQ      -0.104300
     26 C2F         -2.4240    -1.3620     2.8610 ca         1 GEQ      -0.084500
     27 C3F         -2.5380    -2.7500     3.0830 ca         1 GEQ      -0.111500
     28 C4F         -1.4690    -3.4770     3.6560 ca         1 GEQ      -0.110000
     29 C5F         -0.2750    -2.8220     4.0230 ca         1 GEQ      -0.088000
     30 C6F         -0.1610    -1.4350     3.7980 cp         1 GEQ      -0.037000
     31 H1A          0.8360     1.8000    -3.2520 ha         1 GEQ       0.122000
     32 H3A         -2.0100    -1.4450    -3.8470 ha         1 GEQ       0.125000
     33 H4A         -0.5850    -2.3420    -5.6910 ha         1 GEQ       0.117000
     34 H7A          3.1020     1.6570    -5.0670 ha         1 GEQ       0.207000
     35 H8A          3.7010    -0.1120    -7.0370 h4         1 GEQ       0.213000
     36 H9A          1.7910    -1.8880    -7.0830 hn         1 GEQ       0.350000
     37 H2C1        -1.3520     3.2610    -0.1180 h1         1 GEQ       0.064200
     38 H2C2        -2.8230     2.4990    -0.7260 h1         1 GEQ       0.064200
     39 H3C1        -2.6060     2.2270     1.7420 h1         1 GEQ       0.044950
     40 H3C2        -2.6090     0.6640     0.9090 h1         1 GEQ       0.044950
     41 H5C1         1.1230     0.2410     1.1960 h1         1 GEQ       0.044950
     42 H5C2        -0.3390    -0.5620     0.6140 h1         1 GEQ       0.044950
     43 H6C1         0.8570     0.4090    -1.2620 h1         1 GEQ       0.064200
     44 H6C2         0.9270     2.0030    -0.4960 h1         1 GEQ       0.064200
     45 H1D         -1.4500     1.3720     3.7150 h1         1 GEQ       0.081700
     46 H2E          1.2440     2.8550     3.6340 ha         1 GEQ       0.121000
     47 H3E          3.4670     2.3830     4.7070 ha         1 GEQ       0.113500
     48 H4E          4.0600     0.0560     5.3880 ha         1 GEQ       0.112500
     49 H5E          2.4480    -1.8200     5.0140 ha         1 GEQ       0.116000
     50 H2F         -3.2520    -0.8010     2.4360 ha         1 GEQ       0.121000
     51 H3F         -3.4590    -3.2650     2.8160 ha         1 GEQ       0.113500
     52 H4F         -1.5710    -4.5460     3.8240 ha         1 GEQ       0.112500
     53 H5F          0.5420    -3.3780     4.4770 ha         1 GEQ       0.116000
@<TRIPOS>BOND
     1     1     2 ar  
     2     1     6 ar  
     3     1    31 1   
     4     2     3 ar  
     5     2    10 1   
     6     3     4 ar  
     7     3    32 1   
     8     4     5 ar  
     9     4    33 1   
    10     5     6 ar  
    11     5     9 1   
    12     6     7 1   
    13     7     8 2   
    14     7    34 1   
    15     8     9 1   
    16     8    35 1   
    17     9    36 1   
    18    10    11 2   
    19    10    12 1   
    20    12    13 1   
    21    12    17 1   
    22    13    14 1   
    23    13    37 1   
    24    13    38 1   
    25    14    15 1   
    26    14    39 1   
    27    14    40 1   
    28    15    16 1   
    29    15    18 1   
    30    16    17 1   
    31    16    41 1   
    32    16    42 1   
    33    17    43 1   
    34    17    44 1   
    35    18    19 1   
    36    18    25 1   
    37    18    45 1   
    38    19    20 ar  
    39    19    24 ar  
    40    20    21 ar  
    41    20    46 1   
    42    21    22 ar  
    43    21    47 1   
    44    22    23 ar  
    45    22    48 1   
    46    23    24 ar  
    47    23    49 1   
    48    24    30 1   
    49    25    26 ar  
    50    25    30 ar  
    51    26    27 ar  
    52    26    50 1   
    53    27    28 ar  
    54    27    51 1   
    55    28    29 ar  
    56    28    52 1   
    57    29    30 ar  
    58    29    53 1   
@<TRIPOS>SUBSTRUCTURE
     1 GEQ         1 TEMP              0 ****  ****    0 ROOT
