@<TRIPOS>MOLECULE
GER
   54    53     1     0     0
SMALL
bcc


@<TRIPOS>ATOM
      1 C1           8.4400    -0.0190     0.6870 c3         1 GER      -0.052900
      2 C2           6.9500    -0.1240     0.6440 c2         1 GER      -0.168200
      3 C3           6.1740    -0.5190    -0.3700 c2         1 GER      -0.117400
      4 C4           6.6820    -0.9580    -1.7120 c3         1 GER      -0.052900
      5 C5           4.6750    -0.5310    -0.2140 c3         1 GER      -0.037200
      6 C6           3.9780     0.6130    -0.9690 c3         1 GER      -0.036200
      7 C7           2.4880     0.5280    -0.8530 c2         1 GER      -0.171200
      8 C8           1.6900     1.2180    -0.0340 c2         1 GER      -0.112400
      9 C9           2.1650     2.2650     0.9310 c3         1 GER      -0.054900
     10 C10          0.2060     0.9610    -0.0220 c3         1 GER      -0.038200
     11 C11         -0.2540     0.1270     1.1860 c3         1 GER      -0.035200
     12 C12         -1.7470     0.0340     1.2460 c2         1 GER      -0.172200
     13 C13         -2.5210    -0.9910     0.8790 c2         1 GER      -0.111400
     14 C14         -2.0010    -2.2980     0.3550 c3         1 GER      -0.054900
     15 C15         -4.0200    -0.8720     0.9450 c3         1 GER      -0.038200
     16 C16         -4.6860    -0.8650    -0.4420 c3         1 GER      -0.036200
     17 C17         -6.1760    -0.7660    -0.3330 c2         1 GER      -0.174200
     18 C18         -6.9440     0.3000    -0.5730 c2         1 GER      -0.111400
     19 C19         -6.4340     1.6310    -1.0390 c3         1 GER      -0.055900
     20 C20         -8.4310     0.2440    -0.3710 c3         1 GER      -0.055900
     21 H11          8.7500     1.0040     0.9110 hc         1 GER       0.037700
     22 H12          8.8490    -0.6440     1.4850 hc         1 GER       0.037700
     23 H13          8.9250    -0.3140    -0.2420 hc         1 GER       0.037700
     24 H21          6.4490     0.1630     1.5650 ha         1 GER       0.113000
     25 H41          6.3740    -1.9860    -1.9180 hc         1 GER       0.038033
     26 H42          6.2630    -0.3440    -2.5130 hc         1 GER       0.038033
     27 H43          7.7650    -0.9130    -1.8020 hc         1 GER       0.038033
     28 H51          4.2730    -1.4850    -0.5720 hc         1 GER       0.044200
     29 H52          4.4070    -0.4580     0.8430 hc         1 GER       0.044200
     30 H61          4.3590     1.5650    -0.5920 hc         1 GER       0.044700
     31 H62          4.2500     0.5720    -2.0270 hc         1 GER       0.044700
     32 H71          2.0190    -0.2120    -1.4990 ha         1 GER       0.115000
     33 H91          1.7370     3.2390     0.6800 hc         1 GER       0.039033
     34 H92          1.8410     2.0390     1.9490 hc         1 GER       0.039033
     35 H93          3.2480     2.3740     0.9540 hc         1 GER       0.039033
     36 H101        -0.3320     1.9150    -0.0180 hc         1 GER       0.044700
     37 H102        -0.0950     0.4410    -0.9350 hc         1 GER       0.044700
     38 H111         0.2130    -0.8570     1.1280 hc         1 GER       0.045200
     39 H112         0.1120     0.5870     2.1080 hc         1 GER       0.045200
     40 H121        -2.2460     0.9370     1.5930 ha         1 GER       0.115000
     41 H141        -2.5010    -3.1360     0.8460 hc         1 GER       0.039033
     42 H142        -2.2000    -2.4040    -0.7140 hc         1 GER       0.039033
     43 H143        -0.9290    -2.4210     0.4960 hc         1 GER       0.039033
     44 H151        -4.4320    -1.7050     1.5270 hc         1 GER       0.045200
     45 H152        -4.2990     0.0450     1.4680 hc         1 GER       0.045200
     46 H161        -4.2680    -0.0440    -1.0270 hc         1 GER       0.045200
     47 H162        -4.4270    -1.7860    -0.9710 hc         1 GER       0.045200
     48 H171        -6.6680    -1.6690     0.0220 ha         1 GER       0.114000
     49 H191        -6.9370     1.9350    -1.9600 hc         1 GER       0.038367
     50 H192        -6.6550     2.4040    -0.2980 hc         1 GER       0.038367
     51 H193        -5.3620     1.6470    -1.2230 hc         1 GER       0.038367
     52 H201        -8.7640    -0.7380    -0.0360 hc         1 GER       0.038367
     53 H202        -8.7520     0.9810     0.3700 hc         1 GER       0.038367
     54 H203        -8.9620     0.4860    -1.2950 hc         1 GER       0.038367
@<TRIPOS>BOND
     1     1     2 1   
     2     1    21 1   
     3     1    22 1   
     4     1    23 1   
     5     2     3 2   
     6     2    24 1   
     7     3     4 1   
     8     3     5 1   
     9     4    25 1   
    10     4    26 1   
    11     4    27 1   
    12     5     6 1   
    13     5    28 1   
    14     5    29 1   
    15     6     7 1   
    16     6    30 1   
    17     6    31 1   
    18     7     8 2   
    19     7    32 1   
    20     8     9 1   
    21     8    10 1   
    22     9    33 1   
    23     9    34 1   
    24     9    35 1   
    25    10    11 1   
    26    10    36 1   
    27    10    37 1   
    28    11    12 1   
    29    11    38 1   
    30    11    39 1   
    31    12    13 2   
    32    12    40 1   
    33    13    14 1   
    34    13    15 1   
    35    14    41 1   
    36    14    42 1   
    37    14    43 1   
    38    15    16 1   
    39    15    44 1   
    40    15    45 1   
    41    16    17 1   
    42    16    46 1   
    43    16    47 1   
    44    17    18 2   
    45    17    48 1   
    46    18    19 1   
    47    18    20 1   
    48    19    49 1   
    49    19    50 1   
    50    19    51 1   
    51    20    52 1   
    52    20    53 1   
    53    20    54 1   
@<TRIPOS>SUBSTRUCTURE
     1 GER         1 TEMP              0 ****  ****    0 ROOT
