@<TRIPOS>MOLECULE
GER
   54    53     1     0     0
SMALL
No Charge or Current Charge


@<TRIPOS>ATOM
      1 C1           8.4400     0.4900     0.7890 c3         1 GER      -0.052900
      2 C2           6.9370     0.2810     0.7500 c2         1 GER      -0.218200
      3 C3           6.2220    -0.5110    -0.0740 c2         1 GER      -0.117400
      4 C4           6.8020    -1.4280    -1.1450 c3         1 GER      -0.052900
      5 C5           4.7020    -0.5830     0.0050 c3         1 GER      -0.037200
      6 C6           3.9950     0.1590    -1.1500 c3         1 GER      -0.036200
      7 C7           2.4840     0.1490    -0.9970 c2         1 GER      -0.221200
      8 C8           1.7230     1.0230    -0.3100 c2         1 GER      -0.112400
      9 C9           2.2520     2.2110     0.4840 c3         1 GER      -0.054900
     10 C10          0.2050     0.9100    -0.2750 c3         1 GER      -0.038200
     11 C11         -0.3280     0.2960     1.0380 c3         1 GER      -0.035200
     12 C12         -1.8340     0.1050     1.0110 c2         1 GER      -0.222200
     13 C13         -2.5200    -0.9530     0.5360 c2         1 GER      -0.111400
     14 C14         -1.8950    -2.1880    -0.1010 c3         1 GER      -0.054900
     15 C15         -4.0390    -1.0230     0.6100 c3         1 GER      -0.038200
     16 C16         -4.7280    -0.7020    -0.7340 c3         1 GER      -0.036200
     17 C17         -6.2410    -0.6850    -0.6150 c2         1 GER      -0.224200
     18 C18         -7.0250     0.3580    -0.2800 c2         1 GER      -0.111400
     19 C19         -6.5320     1.7510     0.0830 c3         1 GER      -0.055900
     20 C20         -8.5380     0.2510    -0.2230 c3         1 GER      -0.055900
     21 H11          8.6770     1.5590     0.8610 hc         1 GER       0.037700
     22 H12          8.8790    -0.0030     1.6650 hc         1 GER       0.037700
     23 H13          8.9530     0.1120    -0.1010 hc         1 GER       0.037700
     24 H21          6.4110     0.8910     1.4880 ha         1 GER       0.163000
     25 H41          6.4160    -2.4490    -1.0390 hc         1 GER       0.038033
     26 H42          6.5410    -1.0790    -2.1510 hc         1 GER       0.038033
     27 H43          7.8930    -1.5030    -1.1020 hc         1 GER       0.038033
     28 H51          4.3680    -1.6280     0.0260 hc         1 GER       0.044200
     29 H52          4.3580    -0.1430     0.9500 hc         1 GER       0.044200
     30 H61          4.3750     1.1860    -1.2020 hc         1 GER       0.044700
     31 H62          4.2660    -0.3070    -2.1050 hc         1 GER       0.044700
     32 H71          2.0060    -0.6710    -1.5350 ha         1 GER       0.165000
     33 H91          1.8600     3.1550     0.0850 hc         1 GER       0.039033
     34 H92          1.9560     2.1490     1.5380 hc         1 GER       0.039033
     35 H93          3.3440     2.2820     0.4690 hc         1 GER       0.039033
     36 H101        -0.2580     1.8920    -0.4340 hc         1 GER       0.044700
     37 H102        -0.1390     0.2810    -1.1050 hc         1 GER       0.044700
     38 H111         0.1820    -0.6570     1.2200 hc         1 GER       0.045200
     39 H112        -0.0590     0.9420     1.8820 hc         1 GER       0.045200
     40 H121        -2.3780     0.9430     1.4510 ha         1 GER       0.165000
     41 H141        -2.1370    -3.0900     0.4730 hc         1 GER       0.039033
     42 H142        -2.2620    -2.3370    -1.1230 hc         1 GER       0.039033
     43 H143        -0.8040    -2.1280    -0.1660 hc         1 GER       0.039033
     44 H151        -4.3620    -2.0120     0.9600 hc         1 GER       0.045200
     45 H152        -4.4070    -0.3080     1.3560 hc         1 GER       0.045200
     46 H161        -4.3560     0.2600    -1.1050 hc         1 GER       0.045200
     47 H162        -4.4310    -1.4430    -1.4860 hc         1 GER       0.045200
     48 H171        -6.6990    -1.6460    -0.8540 ha         1 GER       0.164000
     49 H191        -6.8970     2.4950    -0.6350 hc         1 GER       0.038367
     50 H192        -6.8900     2.0450     1.0770 hc         1 GER       0.038367
     51 H193        -5.4390     1.8250     0.1040 hc         1 GER       0.038367
     52 H201        -8.8860    -0.7550    -0.4880 hc         1 GER       0.038367
     53 H202        -8.9120     0.4720     0.7840 hc         1 GER       0.038367
     54 H203        -9.0100     0.9550    -0.9180 hc         1 GER       0.038367
@<TRIPOS>BOND
     1     1     2 1   
     2     1    21 1   
     3     1    22 1   
     4     1    23 1   
     5     2     3 2   
     6     2    24 1   
     7     3     4 1   
     8     3     5 1   
     9     4    25 1   
    10     4    26 1   
    11     4    27 1   
    12     5     6 1   
    13     5    28 1   
    14     5    29 1   
    15     6     7 1   
    16     6    30 1   
    17     6    31 1   
    18     7     8 2   
    19     7    32 1   
    20     8     9 1   
    21     8    10 1   
    22     9    33 1   
    23     9    34 1   
    24     9    35 1   
    25    10    11 1   
    26    10    36 1   
    27    10    37 1   
    28    11    12 1   
    29    11    38 1   
    30    11    39 1   
    31    12    13 2   
    32    12    40 1   
    33    13    14 1   
    34    13    15 1   
    35    14    41 1   
    36    14    42 1   
    37    14    43 1   
    38    15    16 1   
    39    15    44 1   
    40    15    45 1   
    41    16    17 1   
    42    16    46 1   
    43    16    47 1   
    44    17    18 2   
    45    17    48 1   
    46    18    19 1   
    47    18    20 1   
    48    19    49 1   
    49    19    50 1   
    50    19    51 1   
    51    20    52 1   
    52    20    53 1   
    53    20    54 1   
@<TRIPOS>SUBSTRUCTURE
     1 GER         1 TEMP              0 ****  ****    0 ROOT
