@<TRIPOS>MOLECULE
GES
   56    56     1     0     0
SMALL
No Charge or Current Charge


@<TRIPOS>ATOM
      1 C10         -1.3780    14.4030    46.6760 c3         1 GES       0.046700
      2 C11         -0.8100    15.2400    47.8610 c3         1 GES      -0.087400
      3 N5          -1.6000    17.1760    43.8780 n3         1 GES      -0.375200
      4 C5           3.6870     9.4910    46.7320 c3         1 GES      -0.081767
      5 C4           2.5300     8.7530    46.0080 c3         1 GES      -0.068300
      6 C9          -1.3340    11.9100    47.1660 c          1 GES       0.645700
      7 N3          -0.7690    13.0530    46.6510 ns         1 GES      -0.478900
      8 C2          -0.4880    10.7030    47.0200 cc         1 GES      -0.222600
      9 N1          -0.7310     9.3900    47.4150 na         1 GES       0.178800
     10 C1           0.7580    10.6300    46.4460 cd         1 GES      -0.192000
     11 C8          -1.9350     8.8870    48.0950 c3         1 GES       0.071900
     12 C7           2.6880     7.2240    46.2560 c3         1 GES      -0.081767
     13 C6           2.6260     9.0170    44.4830 c3         1 GES      -0.081767
     14 C12         -1.1400    15.1260    45.3090 c          1 GES       0.584100
     15 C13         -3.1900    16.5600    45.6970 c3         1 GES       0.117300
     16 C14         -1.5420    16.6690    42.4930 c3         1 GES       0.218100
     17 C15         -0.6150    17.8290    44.5140 c1         1 GES       0.441800
     18 C16         -1.2490    14.7910    49.2830 c3         1 GES      -0.058700
     19 C17         -0.4490    15.5460    50.3690 c3         1 GES      -0.091600
     20 C18         -2.7700    14.9570    49.5180 c3         1 GES      -0.091600
     21 C3           1.1950     9.2900    46.5250 cd         1 GES       0.256300
     22 N2           0.2970     8.5190    47.1140 nc         1 GES      -0.512800
     23 N4          -1.8870    16.3230    45.0240 n          1 GES      -0.261200
     24 N6           0.2380    18.4320    45.0280 n1         1 GES      -0.485000
     25 O1          -2.4380    11.9050    47.6880 o          1 GES      -0.607100
     26 O2          -0.2830    14.7160    44.5310 o          1 GES      -0.568100
     27 H1          -2.4620    14.2920    46.7870 h1         1 GES       0.087700
     28 H2           0.2860    15.2130    47.8000 hc         1 GES       0.058200
     29 H3          -1.0840    16.2940    47.7350 hc         1 GES       0.058200
     30 H4           3.6270     9.3370    47.8160 hc         1 GES       0.036811
     31 H5           4.6630     9.1260    46.3900 hc         1 GES       0.036811
     32 H6           3.6480    10.5710    46.5430 hc         1 GES       0.036811
     33 H7           0.1280    12.9430    46.1960 hn         1 GES       0.333500
     34 H8           1.3250    11.4430    46.0060 ha         1 GES       0.142000
     35 H9          -1.8400     7.8110    48.2820 h1         1 GES       0.066033
     36 H10         -2.0600     9.4100    49.0500 h1         1 GES       0.066033
     37 H11         -2.8120     9.0670    47.4630 h1         1 GES       0.066033
     38 H12          2.6430     6.9910    47.3270 hc         1 GES       0.036811
     39 H13          1.8980     6.6580    45.7480 hc         1 GES       0.036811
     40 H14          3.6530     6.8630    45.8770 hc         1 GES       0.036811
     41 H15          3.5720     8.6380    44.0760 hc         1 GES       0.036811
     42 H16          1.8050     8.5220    43.9510 hc         1 GES       0.036811
     43 H17          2.5730    10.0900    44.2620 hc         1 GES       0.036811
     44 H18         -3.0380    16.7940    46.7570 h1         1 GES       0.048033
     45 H19         -3.7060    17.4060    45.2260 h1         1 GES       0.048033
     46 H20         -3.8260    15.6710    45.6040 h1         1 GES       0.048033
     47 H21         -2.4770    16.1580    42.2350 h1         1 GES       0.053700
     48 H22         -1.4000    17.4980    41.7890 h1         1 GES       0.053700
     49 H23         -0.7130    15.9650    42.3590 h1         1 GES       0.053700
     50 H25         -1.0080    13.7270    49.3960 hc         1 GES       0.049700
     51 H26         -0.7260    15.1950    51.3700 hc         1 GES       0.036700
     52 H27          0.6280    15.3830    50.2420 hc         1 GES       0.036700
     53 H28         -0.6410    16.6250    50.3180 hc         1 GES       0.036700
     54 H29         -3.0370    14.6550    50.5380 hc         1 GES       0.036700
     55 H30         -3.0750    16.0010    49.3800 hc         1 GES       0.036700
     56 H31         -3.3530    14.3350    48.8290 hc         1 GES       0.036700
@<TRIPOS>BOND
     1     1     2 1   
     2     1     7 1   
     3     1    14 1   
     4     1    27 1   
     5     2    18 1   
     6     2    28 1   
     7     2    29 1   
     8     3    16 1   
     9     3    17 1   
    10     3    23 1   
    11     4     5 1   
    12     4    30 1   
    13     4    31 1   
    14     4    32 1   
    15     5    12 1   
    16     5    13 1   
    17     5    21 1   
    18     6     7 1   
    19     6     8 1   
    20     6    25 2   
    21     7    33 1   
    22     8     9 1   
    23     8    10 2   
    24     9    11 1   
    25     9    22 1   
    26    10    21 1   
    27    10    34 1   
    28    11    35 1   
    29    11    36 1   
    30    11    37 1   
    31    12    38 1   
    32    12    39 1   
    33    12    40 1   
    34    13    41 1   
    35    13    42 1   
    36    13    43 1   
    37    14    23 1   
    38    14    26 2   
    39    15    23 1   
    40    15    44 1   
    41    15    45 1   
    42    15    46 1   
    43    16    47 1   
    44    16    48 1   
    45    16    49 1   
    46    17    24 3   
    47    18    19 1   
    48    18    20 1   
    49    18    50 1   
    50    19    51 1   
    51    19    52 1   
    52    19    53 1   
    53    20    54 1   
    54    20    55 1   
    55    20    56 1   
    56    21    22 2   
@<TRIPOS>SUBSTRUCTURE
     1 GES         1 TEMP              0 ****  ****    0 ROOT
