@<TRIPOS>MOLECULE
GES
   56    56     1     0     0
SMALL
bcc


@<TRIPOS>ATOM
      1 C10         -1.2110    14.5530    46.8710 c3         1 GES       0.046700
      2 C11         -0.3710    15.5520    47.6700 c3         1 GES      -0.087400
      3 N5          -2.8740    16.5160    44.1660 n3         1 GES      -0.375200
      4 C5           3.0390     9.1340    48.1490 c3         1 GES      -0.081767
      5 C4           2.4020     8.5640    46.8820 c3         1 GES      -0.068300
      6 C9          -1.1210    12.2150    46.2540 c          1 GES       0.712700
      7 N3          -0.4990    13.3150    46.7210 ns         1 GES      -0.545900
      8 C2          -0.2740    11.0100    46.1930 cc         1 GES      -0.171900
      9 N1          -0.5640     9.9280    45.4380 na         1 GES       0.157400
     10 C1           0.8830    10.7060    46.8850 cd         1 GES      -0.275300
     11 C8          -1.6750     9.7160    44.5330 c3         1 GES       0.042600
     12 C7           1.9580     7.1230    47.1470 c3         1 GES      -0.081767
     13 C6           3.4370     8.5790    45.7500 c3         1 GES      -0.081767
     14 C12         -1.5330    15.1330    45.4930 c          1 GES       0.651100
     15 C13         -3.4540    16.4760    46.4700 c3         1 GES       0.117300
     16 C14         -3.6800    15.6970    43.2680 c3         1 GES       0.218100
     17 C15         -2.0070    17.3880    43.6750 c1         1 GES       0.352600
     18 C16         -0.0120    15.0920    49.0850 c3         1 GES      -0.058700
     19 C17          0.8190    16.1730    49.7690 c3         1 GES      -0.091600
     20 C18         -1.2540    14.7620    49.9080 c3         1 GES      -0.091600
     21 C3           1.2190     9.4070    46.4790 cd         1 GES       0.321600
     22 N2           0.3290     8.9650    45.6010 nc         1 GES      -0.512800
     23 N4          -2.5820    16.0030    45.4120 n          1 GES      -0.328200
     24 N6          -1.2880    18.1880    43.2480 n1         1 GES      -0.395800
     25 O1          -2.3030    12.2110    45.9450 o          1 GES      -0.607100
     26 O2          -0.8610    14.8710    44.5180 o          1 GES      -0.568100
     27 H1          -2.1400    14.3380    47.4020 h1         1 GES       0.087700
     28 H2           0.5440    15.7720    47.1110 hc         1 GES       0.058200
     29 H3          -0.9160    16.4980    47.7380 hc         1 GES       0.058200
     30 H4           2.3320     9.1570    48.9800 hc         1 GES       0.036811
     31 H5           3.8880     8.5170    48.4510 hc         1 GES       0.036811
     32 H6           3.4140    10.1480    47.9980 hc         1 GES       0.036811
     33 H7           0.5080    13.3350    46.7620 hn         1 GES       0.333500
     34 H8           1.3910    11.3280    47.6030 ha         1 GES       0.160000
     35 H9          -1.4800     8.7950    43.9920 h1         1 GES       0.066033
     36 H10         -2.6110     9.6210    45.0770 h1         1 GES       0.066033
     37 H11         -1.7580    10.5340    43.8230 h1         1 GES       0.066033
     38 H12          1.2160     7.0770    47.9460 hc         1 GES       0.036811
     39 H13          1.5230     6.6660    46.2580 hc         1 GES       0.036811
     40 H14          2.8130     6.5170    47.4510 hc         1 GES       0.036811
     41 H15          4.3140     7.9920    46.0310 hc         1 GES       0.036811
     42 H16          3.0280     8.1540    44.8320 hc         1 GES       0.036811
     43 H17          3.7690     9.5950    45.5300 hc         1 GES       0.036811
     44 H18         -3.1900    16.0310    47.4230 h1         1 GES       0.048033
     45 H19         -3.3710    17.5580    46.5690 h1         1 GES       0.048033
     46 H20         -4.4900    16.2150    46.2540 h1         1 GES       0.048033
     47 H21         -4.6060    15.4330    43.7730 h1         1 GES       0.053700
     48 H22         -3.9270    16.2840    42.3870 h1         1 GES       0.053700
     49 H23         -3.1540    14.7930    42.9650 h1         1 GES       0.053700
     50 H25          0.6050    14.1900    49.0180 hc         1 GES       0.049700
     51 H26          1.1370    15.8520    50.7610 hc         1 GES       0.036700
     52 H27          1.7160    16.4110    49.1950 hc         1 GES       0.036700
     53 H28          0.2450    17.0950    49.8850 hc         1 GES       0.036700
     54 H29         -0.9860    14.5440    50.9420 hc         1 GES       0.036700
     55 H30         -1.9520    15.6030    49.9170 hc         1 GES       0.036700
     56 H31         -1.7850    13.8890    49.5260 hc         1 GES       0.036700
@<TRIPOS>BOND
     1     1     2 1   
     2     1     7 1   
     3     1    14 1   
     4     1    27 1   
     5     2    18 1   
     6     2    28 1   
     7     2    29 1   
     8     3    16 1   
     9     3    17 1   
    10     3    23 1   
    11     4     5 1   
    12     4    30 1   
    13     4    31 1   
    14     4    32 1   
    15     5    12 1   
    16     5    13 1   
    17     5    21 1   
    18     6     7 1   
    19     6     8 1   
    20     6    25 2   
    21     7    33 1   
    22     8     9 1   
    23     8    10 2   
    24     9    11 1   
    25     9    22 1   
    26    10    21 1   
    27    10    34 1   
    28    11    35 1   
    29    11    36 1   
    30    11    37 1   
    31    12    38 1   
    32    12    39 1   
    33    12    40 1   
    34    13    41 1   
    35    13    42 1   
    36    13    43 1   
    37    14    23 1   
    38    14    26 2   
    39    15    23 1   
    40    15    44 1   
    41    15    45 1   
    42    15    46 1   
    43    16    47 1   
    44    16    48 1   
    45    16    49 1   
    46    17    24 3   
    47    18    19 1   
    48    18    20 1   
    49    18    50 1   
    50    19    51 1   
    51    19    52 1   
    52    19    53 1   
    53    20    54 1   
    54    20    55 1   
    55    20    56 1   
    56    21    22 2   
@<TRIPOS>SUBSTRUCTURE
     1 GES         1 TEMP              0 ****  ****    0 ROOT
