@<TRIPOS>MOLECULE
GET
   74    76     1     0     0
SMALL
bcc


@<TRIPOS>ATOM
      1 C11          1.2380    -0.2880    -2.8640 c6         1 GET       0.348900
      2 O11          0.5780     0.7760    -2.2410 os         1 GET      -0.426600
      3 C21          2.2440     0.2790    -3.8610 c6         1 GET       0.118500
      4 N21          3.1360     1.2320    -3.2240 n8         1 GET      -0.879800
      5 C31          1.4920     0.9340    -5.0100 c6         1 GET       0.110100
      6 O31          2.3730     1.3680    -6.0300 oh         1 GET      -0.612800
      7 C41          0.5080    -0.0380    -5.6590 c6         1 GET       0.130100
      8 O41         -0.2940     0.6470    -6.5900 oh         1 GET      -0.594800
      9 C51         -0.4000    -0.6640    -4.5980 c6         1 GET       0.108100
     10 O51          0.3710    -1.1670    -3.5150 os         1 GET      -0.431600
     11 C61         -1.2090    -1.8850    -5.0660 c3         1 GET       0.160100
     12 O61         -1.8270    -1.6950    -6.3170 oh         1 GET      -0.583800
     13 C71         -2.2260    -2.2910    -4.0070 c3         1 GET      -0.122100
     14 C12         -2.0120     1.1300     1.1190 c6         1 GET       0.137500
     15 N12         -3.0350     0.8080     2.1070 n8         1 GET      -0.890800
     16 C22         -2.5480     1.2790    -0.3010 c6         1 GET      -0.117400
     17 C32         -1.4390     1.5990    -1.2930 c6         1 GET       0.169500
     18 N32         -2.0000     1.7570    -2.6230 n8         1 GET      -0.886800
     19 C42         -0.4110     0.4680    -1.2760 c6         1 GET       0.160100
     20 C52          0.1820     0.3390     0.1260 c6         1 GET       0.120100
     21 O52          1.1230    -0.7060     0.1280 oh         1 GET      -0.597800
     22 C62         -0.9230     0.0640     1.1490 c6         1 GET       0.128100
     23 O62         -0.3310     0.0150     2.4310 os         1 GET      -0.449600
     24 C13         -0.6340    -1.0680     3.2650 c6         1 GET       0.302900
     25 C23         -0.9550    -0.5470     4.6700 c6         1 GET       0.157100
     26 O23         -1.9740     0.4120     4.6600 oh         1 GET      -0.615800
     27 C33          0.3000     0.0230     5.3440 c6         1 GET       0.193500
     28 N33         -0.0130     0.4670     6.6900 n7         1 GET      -0.814200
     29 C93          0.3960     1.8140     7.0180 c3         1 GET       0.165100
     30 C43          1.4480    -1.0040     5.2900 c6         1 GET       0.096800
     31 O43          1.0560    -2.0790     6.1280 oh         1 GET      -0.585800
     32 C83          2.7680    -0.4070     5.7640 c3         1 GET      -0.125100
     33 C53          1.6150    -1.4860     3.8510 c6         1 GET       0.112400
     34 O53          0.4170    -1.9870     3.2940 os         1 GET      -0.403600
     35 H111         1.7560    -0.9100    -2.1290 h2         1 GET       0.090700
     36 H21          2.7780    -0.5980    -4.2600 h1         1 GET       0.047700
     37 H211         3.4810     0.8470    -2.3530 hn         1 GET       0.344800
     38 H212         3.9550     1.3580    -3.8030 hn         1 GET       0.344800
     39 H311         0.9250     1.7880    -4.6170 h1         1 GET       0.061700
     40 H31          2.6820     2.2520    -5.8150 ho         1 GET       0.415000
     41 H411         1.0900    -0.8400    -6.1450 h1         1 GET       0.057700
     42 H41          0.2960     1.1430    -7.1680 ho         1 GET       0.421000
     43 H511        -1.1000     0.1050    -4.2430 h1         1 GET       0.070700
     44 H611        -0.5000    -2.7050    -5.2190 h1         1 GET       0.077700
     45 H61         -2.4070    -0.9280    -6.2660 ho         1 GET       0.408000
     46 H711        -2.7620    -3.1890    -4.3160 hc         1 GET       0.043033
     47 H712        -1.7530    -2.4980    -3.0480 hc         1 GET       0.043033
     48 H713        -2.9580    -1.4940    -3.8500 hc         1 GET       0.043033
     49 H121        -3.6900     1.5770     2.1870 hn         1 GET       0.352300
     50 H122        -3.5790     0.0090     1.7990 hn         1 GET       0.352300
     51 H221        -3.0520     0.3560    -0.6100 hc         1 GET       0.053700
     52 H222        -3.3010     2.0720    -0.3190 hc         1 GET       0.053700
     53 H32         -0.9330     2.5160    -0.9470 h1         1 GET       0.030700
     54 H321        -2.7140     2.4750    -2.5930 hn         1 GET       0.348800
     55 H322        -1.2870     2.1140    -3.2470 hn         1 GET       0.348800
     56 H421        -0.9260    -0.4650    -1.5430 h1         1 GET       0.073700
     57 H521         0.6630     1.2960     0.3850 h1         1 GET       0.051700
     58 H52          1.5530    -0.7230     0.9890 ho         1 GET       0.420000
     59 H621        -1.3730    -0.9100     0.8980 h1         1 GET       0.052700
     60 H131        -1.4940    -1.6200     2.8660 h2         1 GET       0.073700
     61 H231        -1.2800    -1.4230     5.2510 h1         1 GET       0.072700
     62 H23         -2.3330     0.5350     3.7470 ho         1 GET       0.444000
     63 H331         0.6250     0.8920     4.7580 h1         1 GET       0.060700
     64 H33          0.3300    -0.1930     7.3730 hn         1 GET       0.374800
     65 H931         0.1560     2.0220     8.0610 h1         1 GET       0.023700
     66 H932         1.4650     2.0260     6.8790 h1         1 GET       0.023700
     67 H933        -0.1590     2.5300     6.4100 h1         1 GET       0.023700
     68 H43          1.8020    -2.6820     6.2260 ho         1 GET       0.402000
     69 H831         3.5720    -1.1440     5.6950 hc         1 GET       0.044700
     70 H832         3.0580     0.4540     5.1620 hc         1 GET       0.044700
     71 H833         2.7060    -0.0860     6.8040 hc         1 GET       0.044700
     72 H531         2.3380    -2.3050     3.8120 h1         1 GET       0.048200
     73 H532         2.0270    -0.6690     3.2440 h1         1 GET       0.048200
     74 H12         -1.5630     2.0810     1.4230 h1         1 GET       0.078700
@<TRIPOS>BOND
     1     1     2 1   
     2     1     3 1   
     3     1    10 1   
     4     1    35 1   
     5     2    19 1   
     6     3     4 1   
     7     3     5 1   
     8     3    36 1   
     9     4    37 1   
    10     4    38 1   
    11     5     6 1   
    12     5     7 1   
    13     5    39 1   
    14     6    40 1   
    15     7     8 1   
    16     7     9 1   
    17     7    41 1   
    18     8    42 1   
    19     9    10 1   
    20     9    11 1   
    21     9    43 1   
    22    11    12 1   
    23    11    13 1   
    24    11    44 1   
    25    12    45 1   
    26    13    46 1   
    27    13    47 1   
    28    13    48 1   
    29    14    15 1   
    30    14    16 1   
    31    14    22 1   
    32    14    74 1   
    33    15    49 1   
    34    15    50 1   
    35    16    17 1   
    36    16    51 1   
    37    16    52 1   
    38    17    18 1   
    39    17    19 1   
    40    17    53 1   
    41    18    54 1   
    42    18    55 1   
    43    19    20 1   
    44    19    56 1   
    45    20    21 1   
    46    20    22 1   
    47    20    57 1   
    48    21    58 1   
    49    22    23 1   
    50    22    59 1   
    51    23    24 1   
    52    24    25 1   
    53    24    34 1   
    54    24    60 1   
    55    25    26 1   
    56    25    27 1   
    57    25    61 1   
    58    26    62 1   
    59    27    28 1   
    60    27    30 1   
    61    27    63 1   
    62    28    29 1   
    63    28    64 1   
    64    29    65 1   
    65    29    66 1   
    66    29    67 1   
    67    30    31 1   
    68    30    32 1   
    69    30    33 1   
    70    31    68 1   
    71    32    69 1   
    72    32    70 1   
    73    32    71 1   
    74    33    34 1   
    75    33    72 1   
    76    33    73 1   
@<TRIPOS>SUBSTRUCTURE
     1 GET         1 TEMP              0 ****  ****    0 ROOT
