@<TRIPOS>MOLECULE
GET
   74    76     1     0     0
SMALL
No Charge or Current Charge


@<TRIPOS>ATOM
      1 C11          1.1980    -0.0720    -3.0080 c6         1 GET       0.395300
      2 O11          0.2950     0.9290    -2.4770 os         1 GET      -0.473000
      3 C21          2.1990     0.5640    -4.0450 c6         1 GET       0.118500
      4 N21          3.0330     1.7020    -3.5230 n8         1 GET      -0.990200
      5 C31          1.4240     1.0220    -5.3110 c6         1 GET       0.133300
      6 O31          2.3520     1.5800    -6.2530 oh         1 GET      -0.675000
      7 C41          0.6280    -0.1680    -5.9140 c6         1 GET       0.153300
      8 O41         -0.0880     0.2650    -7.0890 oh         1 GET      -0.717000
      9 C51         -0.3320    -0.7260    -4.8160 c6         1 GET       0.131300
     10 O51          0.4330    -1.1250    -3.6470 os         1 GET      -0.478000
     11 C61         -1.1540    -1.9660    -5.3040 c3         1 GET       0.183300
     12 O61         -1.8810    -1.6560    -6.5010 oh         1 GET      -0.706000
     13 C71         -2.1570    -2.5010    -4.2600 c3         1 GET      -0.122100
     14 C12         -2.0410     1.0000     1.2240 c6         1 GET       0.137500
     15 N12         -3.0350     0.6180     2.2630 n8         1 GET      -1.001200
     16 C22         -2.7630     1.0750    -0.1430 c6         1 GET      -0.117400
     17 C32         -1.7930     1.4850    -1.2780 c6         1 GET       0.169500
     18 N32         -2.5370     1.5790    -2.5560 n8         1 GET      -0.997200
     19 C42         -0.5640     0.5150    -1.3720 c6         1 GET       0.183300
     20 C52          0.1660     0.4920     0.0200 c6         1 GET       0.143300
     21 O52          1.3390    -0.3420     0.0680 oh         1 GET      -0.720000
     22 C62         -0.8080     0.0310     1.1420 c6         1 GET       0.151300
     23 O62         -0.0620    -0.0570     2.3870 os         1 GET      -0.496000
     24 C13         -0.6060    -0.9330     3.4000 c6         1 GET       0.349300
     25 C23         -0.8820    -0.1830     4.7540 c6         1 GET       0.180300
     26 O23         -1.7020     1.0020     4.5470 oh         1 GET      -0.738000
     27 C33          0.4690     0.1590     5.4940 c6         1 GET       0.193500
     28 N33          0.2110     0.7090     6.8650 n7         1 GET      -0.869400
     29 C93          0.9830     1.8920     7.2900 c3         1 GET       0.165100
     30 C43          1.4110    -1.1110     5.5630 c6         1 GET       0.120000
     31 O43          0.8240    -2.1160     6.4160 oh         1 GET      -0.708000
     32 C83          2.8140    -0.7830     6.1500 c3         1 GET      -0.125100
     33 C53          1.5770    -1.6780     4.1230 c6         1 GET       0.135600
     34 O53          0.2930    -2.0450     3.5780 os         1 GET      -0.450000
     35 H111         1.7990    -0.5110    -2.2010 h2         1 GET       0.090700
     36 H21          2.9040    -0.2250    -4.3490 h1         1 GET       0.047700
     37 H211         2.4090     2.3460    -3.0200 hn         1 GET       0.400000
     38 H212         3.6480     1.3530    -2.7780 hn         1 GET       0.400000
     39 H311         0.7030     1.7960    -5.0050 h1         1 GET       0.061700
     40 H31          3.0500     1.9640    -5.6670 ho         1 GET       0.454000
     41 H411         1.3410    -0.9610    -6.1850 h1         1 GET       0.057700
     42 H41          0.5240     0.9040    -7.5330 ho         1 GET       0.520000
     43 H511        -1.0440     0.0590    -4.5230 h1         1 GET       0.070700
     44 H611        -0.4290    -2.7660    -5.5130 h1         1 GET       0.077700
     45 H61         -1.3470    -0.9280    -6.9300 ho         1 GET       0.507000
     46 H711        -2.7010    -3.3670    -4.6550 hc         1 GET       0.043033
     47 H712        -1.6370    -2.8170    -3.3480 hc         1 GET       0.043033
     48 H713        -2.8860    -1.7280    -3.9880 hc         1 GET       0.043033
     49 H121        -3.8140     1.2930     2.2270 hn         1 GET       0.407500
     50 H122        -3.5000    -0.2520     1.9650 hn         1 GET       0.407500
     51 H221        -3.2150     0.1010    -0.3810 hc         1 GET       0.053700
     52 H222        -3.5880     1.7980    -0.0860 hc         1 GET       0.053700
     53 H32         -1.4090     2.4940    -1.0640 h1         1 GET       0.030700
     54 H321        -3.1360     2.4120    -2.5300 hn         1 GET       0.404000
     55 H322        -1.8550     1.7950    -3.2910 hn         1 GET       0.404000
     56 H421        -0.9490    -0.4930    -1.5860 h1         1 GET       0.073700
     57 H521         0.4610     1.5270     0.2490 h1         1 GET       0.051700
     58 H52          1.4370    -0.5570     1.0270 ho         1 GET       0.519000
     59 H621        -1.1660    -0.9770     0.8800 h1         1 GET       0.052700
     60 H131        -1.5670    -1.3400     3.0500 h2         1 GET       0.073700
     61 H231        -1.4340    -0.8910     5.3900 h1         1 GET       0.072700
     62 H23         -2.1640     0.8660     3.6610 ho         1 GET       0.543000
     63 H331         0.9760     0.9280     4.8890 h1         1 GET       0.060700
     64 H33          0.3800    -0.0630     7.5230 hn         1 GET       0.430000
     65 H931         0.6930     2.1950     8.3050 h1         1 GET       0.023700
     66 H932         2.0610     1.6900     7.2910 h1         1 GET       0.023700
     67 H933         0.7960     2.7390     6.6160 h1         1 GET       0.023700
     68 H43          0.3830    -2.7620     5.8160 ho         1 GET       0.501000
     69 H831         3.4850    -1.6470     6.0800 hc         1 GET       0.044700
     70 H832         3.2870     0.0470     5.6100 hc         1 GET       0.044700
     71 H833         2.7590    -0.5070     7.2100 hc         1 GET       0.044700
     72 H531         2.2180    -2.5710     4.1420 h1         1 GET       0.048200
     73 H532         2.0620    -0.9360     3.4710 h1         1 GET       0.048200
     74 H12         -1.6670     2.0050     1.4800 h1         1 GET       0.078700
@<TRIPOS>BOND
     1     1     2 1   
     2     1     3 1   
     3     1    10 1   
     4     1    35 1   
     5     2    19 1   
     6     3     4 1   
     7     3     5 1   
     8     3    36 1   
     9     4    37 1   
    10     4    38 1   
    11     5     6 1   
    12     5     7 1   
    13     5    39 1   
    14     6    40 1   
    15     7     8 1   
    16     7     9 1   
    17     7    41 1   
    18     8    42 1   
    19     9    10 1   
    20     9    11 1   
    21     9    43 1   
    22    11    12 1   
    23    11    13 1   
    24    11    44 1   
    25    12    45 1   
    26    13    46 1   
    27    13    47 1   
    28    13    48 1   
    29    14    15 1   
    30    14    16 1   
    31    14    22 1   
    32    14    74 1   
    33    15    49 1   
    34    15    50 1   
    35    16    17 1   
    36    16    51 1   
    37    16    52 1   
    38    17    18 1   
    39    17    19 1   
    40    17    53 1   
    41    18    54 1   
    42    18    55 1   
    43    19    20 1   
    44    19    56 1   
    45    20    21 1   
    46    20    22 1   
    47    20    57 1   
    48    21    58 1   
    49    22    23 1   
    50    22    59 1   
    51    23    24 1   
    52    24    25 1   
    53    24    34 1   
    54    24    60 1   
    55    25    26 1   
    56    25    27 1   
    57    25    61 1   
    58    26    62 1   
    59    27    28 1   
    60    27    30 1   
    61    27    63 1   
    62    28    29 1   
    63    28    64 1   
    64    29    65 1   
    65    29    66 1   
    66    29    67 1   
    67    30    31 1   
    68    30    32 1   
    69    30    33 1   
    70    31    68 1   
    71    32    69 1   
    72    32    70 1   
    73    32    71 1   
    74    33    34 1   
    75    33    72 1   
    76    33    73 1   
@<TRIPOS>SUBSTRUCTURE
     1 GET         1 TEMP              0 ****  ****    0 ROOT
