@<TRIPOS>MOLECULE
GEU
   50    53     1     0     0
SMALL
No Charge or Current Charge


@<TRIPOS>ATOM
      1 C10         -1.5550    -3.0130    85.0810 c          1 GEU       0.597600
      2 C13         -3.9380    -3.0570    85.6350 ca         1 GEU       0.057600
      3 C15         -1.0400     0.2010    87.8980 c3         1 GEU       0.083300
      4 C17          3.8760    -3.7600    83.8810 cc         1 GEU      -0.419400
      5 C22          3.6360    -4.6080    84.9440 cd         1 GEU       0.207800
      6 C26         -4.1870    -4.3440    86.1530 ca         1 GEU      -0.083000
      7 C28         -6.4870    -4.2320    85.3600 ca         1 GEU      -0.094000
      8 C01          2.1420    -1.9960    84.4890 ca         1 GEU      -0.203600
      9 C02          2.2190    -0.8820    85.3330 ca         1 GEU      -0.019000
     10 C03          1.1130    -0.4940    86.0880 ca         1 GEU      -0.189000
     11 C04         -0.0830    -1.2380    86.0570 ca         1 GEU       0.129600
     12 C05         -0.2130    -2.3080    85.1470 ca         1 GEU      -0.220600
     13 C06          0.9060    -2.6800    84.3290 ca         1 GEU       0.052700
     14 C08         -2.5050    -1.3520    86.6270 c          1 GEU       0.625000
     15 C11          0.7910    -3.7530    83.2340 c3         1 GEU      -0.062800
     16 C16          3.3940    -2.3750    83.7440 c          1 GEU       0.631900
     17 C19          4.7840    -4.3470    82.9240 c          1 GEU       0.587200
     18 C25          2.9070    -4.4020    86.2460 c3         1 GEU      -0.063900
     19 C27         -5.4560    -4.9280    86.0140 ca         1 GEU       0.123000
     20 C29         -6.2460    -2.9470    84.8440 ca         1 GEU      -0.096000
     21 C30         -4.9750    -2.3610    84.9820 ca         1 GEU      -0.081000
     22 N07         -1.2240    -0.8000    86.8090 n          1 GEU      -0.302000
     23 N09         -2.6380    -2.4540    85.7760 n          1 GEU      -0.308600
     24 N20          5.0690    -5.6040    83.4470 n          1 GEU      -0.264200
     25 N21          4.3140    -5.7950    84.6620 na         1 GEU      -0.546200
     26 O12         -1.7160    -4.0530    84.4570 o          1 GEU      -0.507000
     27 O14         -3.4780    -0.9040    87.2220 o          1 GEU      -0.539000
     28 O18          3.9210    -1.5610    82.9990 o          1 GEU      -0.503100
     29 O23          5.1990    -3.8940    81.8670 o          1 GEU      -0.525000
     30 Cl1         -5.7570    -6.5350    86.6620 cl         1 GEU      -0.200000
     31 H1          -1.8720     0.1880    88.6120 h1         1 GEU       0.059033
     32 H2          -0.1260    -0.0230    88.4620 h1         1 GEU       0.059033
     33 H3          -0.9620     1.2060    87.4640 h1         1 GEU       0.059033
     34 H4           5.9270    -7.5380    83.3380 h1         1 GEU       0.055033
     35 H5           5.0300    -7.0200    81.8790 h1         1 GEU       0.055033
     36 H6           6.6410    -6.3280    82.2330 h1         1 GEU       0.055033
     37 H7          -3.3970    -4.8900    86.6610 ha         1 GEU       0.134000
     38 H8          -7.4680    -4.6880    85.2550 ha         1 GEU       0.131000
     39 H9           3.1470    -0.3190    85.4140 ha         1 GEU       0.129000
     40 H10          1.2200     0.3870    86.7140 ha         1 GEU       0.128000
     41 H11          0.7540    -4.7600    83.6650 hc         1 GEU       0.062700
     42 H12         -0.1070    -3.6030    82.6240 hc         1 GEU       0.062700
     43 H13          1.6150    -3.7350    82.5140 hc         1 GEU       0.062700
     44 H14          3.2520    -5.1110    87.0080 hc         1 GEU       0.067367
     45 H15          3.0740    -3.3960    86.6450 hc         1 GEU       0.067367
     46 H16          1.8280    -4.5520    86.1260 hc         1 GEU       0.067367
     47 H17         -7.0430    -2.4060    84.3380 ha         1 GEU       0.122000
     48 H18         -4.7930    -1.3670    84.5800 ha         1 GEU       0.128000
     49 H19          4.5650    -6.5680    85.2860 hn         1 GEU       0.535000
     50 C24          5.7050    -6.6890    82.6780 c3         1 GEU       0.096300
@<TRIPOS>BOND
     1     1    12 1   
     2     1    23 1   
     3     1    26 2   
     4     2     6 ar  
     5     2    21 ar  
     6     2    23 1   
     7     3    22 1   
     8     3    31 1   
     9     3    32 1   
    10     3    33 1   
    11     4     5 2   
    12     4    16 1   
    13     4    17 1   
    14     5    18 1   
    15     5    25 1   
    16     6    19 ar  
    17     6    37 1   
    18     7    19 ar  
    19     7    20 ar  
    20     7    38 1   
    21     8     9 ar  
    22     8    13 ar  
    23     8    16 1   
    24     9    10 ar  
    25     9    39 1   
    26    10    11 ar  
    27    10    40 1   
    28    11    12 ar  
    29    11    22 1   
    30    12    13 ar  
    31    13    15 1   
    32    14    22 1   
    33    14    23 1   
    34    14    27 2   
    35    15    41 1   
    36    15    42 1   
    37    15    43 1   
    38    16    28 2   
    39    17    24 1   
    40    17    29 2   
    41    18    44 1   
    42    18    45 1   
    43    18    46 1   
    44    19    30 1   
    45    20    21 ar  
    46    20    47 1   
    47    21    48 1   
    48    24    25 1   
    49    24    50 1   
    50    25    49 1   
    51    34    50 1   
    52    35    50 1   
    53    36    50 1   
@<TRIPOS>SUBSTRUCTURE
     1 GEU         1 TEMP              0 ****  ****    0 ROOT
