@<TRIPOS>MOLECULE
GEU
   50    53     1     0     0
SMALL
bcc


@<TRIPOS>ATOM
      1 C10         -1.7210    -2.8480    84.8470 c          1 GEU       0.740100
      2 C13         -3.9420    -2.9690    85.7580 ca         1 GEU       0.057600
      3 C15         -0.8670     0.1080    87.8030 c3         1 GEU       0.083300
      4 C17          3.7850    -3.7670    83.6910 cc         1 GEU      -0.419400
      5 C22          3.5620    -4.6680    84.7350 cd         1 GEU       0.207800
      6 C26         -4.1710    -4.1610    86.4240 ca         1 GEU      -0.101000
      7 C28         -6.4700    -4.0990    85.6820 ca         1 GEU      -0.112000
      8 C01          1.9310    -2.1500    84.2690 ca         1 GEU      -0.203600
      9 C02          2.1420    -1.1710    85.2350 ca         1 GEU      -0.037000
     10 C03          1.1350    -0.7600    86.0750 ca         1 GEU      -0.207000
     11 C04         -0.1370    -1.3230    85.9490 ca         1 GEU       0.129600
     12 C05         -0.3730    -2.2850    84.9530 ca         1 GEU      -0.220600
     13 C06          0.6670    -2.7030    84.0920 ca         1 GEU       0.052700
     14 C08         -2.4020    -1.4530    86.7810 c          1 GEU       0.834500
     15 C11          0.4630    -3.7170    83.0000 c3         1 GEU      -0.062800
     16 C16          3.1150    -2.5190    83.4210 c          1 GEU       0.631900
     17 C19          4.8860    -4.2940    82.8980 c          1 GEU       0.729700
     18 C25          2.5870    -4.7040    85.8550 c3         1 GEU      -0.063900
     19 C27         -5.4390    -4.7160    86.3740 ca         1 GEU       0.031400
     20 C29         -6.2160    -2.9060    85.0220 ca         1 GEU      -0.114000
     21 C30         -4.9520    -2.3360    85.0530 ca         1 GEU      -0.099000
     22 N07         -1.1450    -0.9180    86.8080 n          1 GEU      -0.369000
     23 N09         -2.6310    -2.3990    85.7970 n          1 GEU      -0.442600
     24 N20          5.2110    -5.4840    83.5090 n          1 GEU      -0.331200
     25 N21          4.4400    -5.6490    84.6120 na         1 GEU      -0.491000
     26 O12         -2.0880    -3.6590    84.0260 o          1 GEU      -0.582500
     27 O14         -3.2810    -1.1380    87.5530 o          1 GEU      -0.614500
     28 O18          3.4940    -1.7270    82.5730 o          1 GEU      -0.503100
     29 O23          5.4570    -3.8680    81.9020 o          1 GEU      -0.600500
     30 CL1         -5.7360    -6.2110    87.1940 cl         1 GEU      -0.108400
     31 H1          -1.7710     0.3250    88.3570 h1         1 GEU       0.059033
     32 H2          -0.1030    -0.2280    88.5020 h1         1 GEU       0.059033
     33 H3          -0.5320     1.0240    87.3180 h1         1 GEU       0.059033
     34 H4           6.0400    -7.3730    83.1870 h1         1 GEU       0.055033
     35 H5           6.7760    -6.0270    82.3100 h1         1 GEU       0.055033
     36 H6           7.1010    -6.2270    84.0400 h1         1 GEU       0.055033
     37 H7          -3.3720    -4.6450    86.9700 ha         1 GEU       0.152000
     38 H8          -7.4570    -4.5420    85.6550 ha         1 GEU       0.149000
     39 H9           3.1260    -0.7320    85.3490 ha         1 GEU       0.147000
     40 H10          1.3520    -0.0110    86.8200 ha         1 GEU       0.146000
     41 H11          0.1460    -4.6810    83.3960 hc         1 GEU       0.062700
     42 H12         -0.2980    -3.3950    82.2920 hc         1 GEU       0.062700
     43 H13          1.3800    -3.8800    82.4410 hc         1 GEU       0.062700
     44 H14          2.8340    -5.5050    86.5500 hc         1 GEU       0.067367
     45 H15          2.5790    -3.7650    86.4050 hc         1 GEU       0.067367
     46 H16          1.5770    -4.8820    85.4870 hc         1 GEU       0.067367
     47 H17         -7.0140    -2.4190    84.4770 ha         1 GEU       0.140000
     48 H18         -4.7520    -1.4070    84.5350 ha         1 GEU       0.146000
     49 H19          4.5000    -6.4930    85.1630 hn         1 GEU       0.479800
     50 C24          6.3460    -6.3300    83.2600 c3         1 GEU       0.096300
@<TRIPOS>BOND
     1     1    12 1   
     2     1    23 1   
     3     1    26 2   
     4     2     6 ar  
     5     2    21 ar  
     6     2    23 1   
     7     3    22 1   
     8     3    31 1   
     9     3    32 1   
    10     3    33 1   
    11     4     5 2   
    12     4    16 1   
    13     4    17 1   
    14     5    18 1   
    15     5    25 1   
    16     6    19 ar  
    17     6    37 1   
    18     7    19 ar  
    19     7    20 ar  
    20     7    38 1   
    21     8     9 ar  
    22     8    13 ar  
    23     8    16 1   
    24     9    10 ar  
    25     9    39 1   
    26    10    11 ar  
    27    10    40 1   
    28    11    12 ar  
    29    11    22 1   
    30    12    13 ar  
    31    13    15 1   
    32    14    22 1   
    33    14    23 1   
    34    14    27 2   
    35    15    41 1   
    36    15    42 1   
    37    15    43 1   
    38    16    28 2   
    39    17    24 1   
    40    17    29 2   
    41    18    44 1   
    42    18    45 1   
    43    18    46 1   
    44    19    30 1   
    45    20    21 ar  
    46    20    47 1   
    47    21    48 1   
    48    24    25 1   
    49    24    50 1   
    50    25    49 1   
    51    34    50 1   
    52    35    50 1   
    53    36    50 1   
@<TRIPOS>SUBSTRUCTURE
     1 GEU         1 TEMP              0 ****  ****    0 ROOT
