@<TRIPOS>MOLECULE
GEV
   48    51     1     0     0
SMALL
bcc


@<TRIPOS>ATOM
      1 C10          7.4320     2.9860    -1.6180 ca         1 GEV      -0.109000
      2 C15          0.1580    -2.6780     0.0880 c          1 GEV       0.581700
      3 C17         -1.1730    -2.0590    -0.1860 ca         1 GEV      -0.154600
      4 C20         -3.7070    -0.9620    -0.7050 ca         1 GEV      -0.062800
      5 C21         -2.6250    -0.1380    -0.3820 ca         1 GEV      -0.112000
      6 C22         -1.3780    -0.6810    -0.1310 ca         1 GEV      -0.088500
      7 C24         -5.6290     0.6750    -0.6170 cc         1 GEV      -0.121600
      8 C28         -6.5120     2.8650     0.3040 c          1 GEV       0.739100
      9 C01          4.5370    -1.8620     3.2880 c3         1 GEV      -0.117400
     10 C02          4.5060    -1.3130     1.9160 cc         1 GEV       0.160700
     11 C03          3.7590    -1.5530     0.8120 cd         1 GEV       0.236300
     12 C05          5.1440    -0.0230     0.3110 cc         1 GEV       0.551900
     13 C07          5.9410     1.0110    -0.3330 ca         1 GEV      -0.136500
     14 C08          5.6860     1.3310    -1.6680 ca         1 GEV      -0.090500
     15 C09          6.4280     2.3120    -2.3040 ca         1 GEV      -0.137000
     16 C11          7.6890     2.6700    -0.2910 ca         1 GEV      -0.137000
     17 C12          6.9500     1.6890     0.3520 ca         1 GEV      -0.090500
     18 C14          1.3210    -1.7660     0.3770 c3         1 GEV      -0.174400
     19 C18         -2.2480    -2.8840    -0.5190 ca         1 GEV      -0.088500
     20 C19         -3.4890    -2.3430    -0.7870 ca         1 GEV      -0.112000
     21 C23         -5.0500    -0.4780    -0.9760 cf         1 GEV       0.014800
     22 C25         -7.0420     0.9600    -0.9790 c          1 GEV       0.726700
     23 N04          4.1840    -0.7160    -0.1990 nd         1 GEV      -0.683000
     24 N27         -7.4240     2.1600    -0.4310 ns         1 GEV      -0.613500
     25 O06          5.3940    -0.3340     1.5890 os         1 GEV      -0.346800
     26 O16          0.2830    -3.8830     0.0700 o          1 GEV      -0.520100
     27 O26         -7.7590     0.2560    -1.6460 o          1 GEV      -0.562500
     28 O29         -6.6880     3.9190     0.8460 o          1 GEV      -0.536500
     29 S30         -4.9690     1.9820     0.3450 ss         1 GEV      -0.179200
     30 H1           8.0100     3.7520    -2.1180 ha         1 GEV       0.134000
     31 H2           2.8520    -3.1530    -0.2370 hc         1 GEV       0.065200
     32 H3           2.5470    -3.1580     1.4860 hc         1 GEV       0.065200
     33 H5          -2.7230     0.9390    -0.3630 ha         1 GEV       0.143000
     34 H6          -0.5650    -0.0070     0.1040 ha         1 GEV       0.149500
     35 H7           5.5090    -2.2960     3.5270 hc         1 GEV       0.058367
     36 H8           4.3210    -1.0950     4.0340 hc         1 GEV       0.058367
     37 H9           3.7870    -2.6450     3.3890 hc         1 GEV       0.058367
     38 H10          4.9060     0.8080    -2.2050 ha         1 GEV       0.148000
     39 H11          6.2220     2.5520    -3.3390 ha         1 GEV       0.135500
     40 H12          8.4690     3.1900     0.2500 ha         1 GEV       0.135500
     41 H13          7.1660     1.4570     1.3870 ha         1 GEV       0.148000
     42 H14          1.0750    -1.1470     1.2450 hc         1 GEV       0.073700
     43 H15          1.4330    -1.0660    -0.4570 hc         1 GEV       0.073700
     44 H16         -2.1110    -3.9550    -0.5770 ha         1 GEV       0.149500
     45 H17         -4.3110    -2.9960    -1.0530 ha         1 GEV       0.143000
     46 H18         -5.6870    -1.1650    -1.5240 ha         1 GEV       0.155000
     47 H20         -8.3630     2.5210    -0.5570 hn         1 GEV       0.353500
     48 C13          2.6340    -2.5060     0.6160 c3         1 GEV      -0.082700
@<TRIPOS>BOND
     1     1    15 ar  
     2     1    16 ar  
     3     1    30 1   
     4     2     3 1   
     5     2    18 1   
     6     2    26 2   
     7     3     6 ar  
     8     3    19 ar  
     9     4     5 ar  
    10     4    20 ar  
    11     4    21 1   
    12     5     6 ar  
    13     5    33 1   
    14     6    34 1   
    15     7    21 2   
    16     7    22 1   
    17     7    29 1   
    18     8    24 1   
    19     8    28 2   
    20     8    29 1   
    21     9    10 1   
    22     9    35 1   
    23     9    36 1   
    24     9    37 1   
    25    10    11 2   
    26    10    25 1   
    27    11    23 1   
    28    11    48 1   
    29    12    13 1   
    30    12    23 2   
    31    12    25 1   
    32    13    14 ar  
    33    13    17 ar  
    34    14    15 ar  
    35    14    38 1   
    36    15    39 1   
    37    16    17 ar  
    38    16    40 1   
    39    17    41 1   
    40    18    42 1   
    41    18    43 1   
    42    18    48 1   
    43    19    20 ar  
    44    19    44 1   
    45    20    45 1   
    46    21    46 1   
    47    22    24 1   
    48    22    27 2   
    49    24    47 1   
    50    31    48 1   
    51    32    48 1   
@<TRIPOS>SUBSTRUCTURE
     1 GEV         1 TEMP              0 ****  ****    0 ROOT
