@<TRIPOS>MOLECULE
GEV
   48    51     1     0     0
SMALL
No Charge or Current Charge


@<TRIPOS>ATOM
      1 C10          7.9240     3.0080    -1.4410 ca         1 GEV      -0.091000
      2 C15          0.1620    -2.7060    -0.0810 c          1 GEV       0.581700
      3 C17         -1.2330    -2.1170    -0.1960 ca         1 GEV      -0.154600
      4 C20         -3.8800    -1.0630    -0.4210 ca         1 GEV      -0.062800
      5 C21         -2.7880    -0.2220    -0.1250 ca         1 GEV      -0.094000
      6 C22         -1.4850    -0.7380    -0.0130 ca         1 GEV      -0.070500
      7 C24         -5.9170     0.6380    -0.4540 cc         1 GEV      -0.121600
      8 C28         -6.7700     3.0410    -0.1990 c          1 GEV       0.596600
      9 C01          4.2700    -1.7750     3.1530 c3         1 GEV      -0.117400
     10 C02          4.4740    -1.2070     1.7760 cc         1 GEV       0.116300
     11 C03          3.8550    -1.4730     0.5800 cd         1 GEV       0.236300
     12 C05          5.3230     0.0300     0.2520 cc         1 GEV       0.507500
     13 C07          6.2130     1.0480    -0.3230 ca         1 GEV      -0.136500
     14 C08          6.1440     1.3660    -1.6990 ca         1 GEV      -0.072500
     15 C09          6.9940     2.3390    -2.2530 ca         1 GEV      -0.119000
     16 C11          8.0020     2.7020    -0.0730 ca         1 GEV      -0.119000
     17 C12          7.1540     1.7290     0.4840 ca         1 GEV      -0.072500
     18 C14          1.3540    -1.7760     0.2180 c3         1 GEV      -0.174400
     19 C18         -2.3280    -2.9580    -0.4920 ca         1 GEV      -0.070500
     20 C19         -3.6280    -2.4380    -0.6030 ca         1 GEV      -0.094000
     21 C23         -5.2780    -0.5770    -0.5520 cf         1 GEV      -0.035200
     22 C25         -7.3750     0.7850    -0.6470 c          1 GEV       0.584200
     23 N04          4.4050    -0.6730    -0.3990 nd         1 GEV      -0.683000
     24 N27         -7.6970     2.0920    -0.4870 ns         1 GEV      -0.479500
     25 O06          5.4150    -0.2500     1.5850 os         1 GEV      -0.258000
     26 O16          0.3400    -3.9110    -0.2240 o          1 GEV      -0.520100
     27 O26         -8.1860    -0.0890    -0.9070 o          1 GEV      -0.487000
     28 O29         -6.9960     4.2290    -0.0430 o          1 GEV      -0.461000
     29 S30         -5.1680     2.1950    -0.0950 ss         1 GEV      -0.179200
     30 H1           8.5810     3.7610    -1.8700 ha         1 GEV       0.116000
     31 H2           2.9520    -2.9620    -0.6620 hc         1 GEV       0.065200
     32 H3           2.7340    -3.2340     1.0590 hc         1 GEV       0.065200
     33 H5          -2.9230     0.8420     0.0250 ha         1 GEV       0.125000
     34 H6          -0.6810    -0.0430     0.2180 ha         1 GEV       0.131500
     35 H7           4.6110    -2.8160     3.1970 hc         1 GEV       0.058367
     36 H8           4.8290    -1.2030     3.9030 hc         1 GEV       0.058367
     37 H9           3.2100    -1.7510     3.4290 hc         1 GEV       0.058367
     38 H10          5.4300     0.8580    -2.3440 ha         1 GEV       0.130000
     39 H11          6.9320     2.5740    -3.3130 ha         1 GEV       0.117500
     40 H12          8.7220     3.2200     0.5580 ha         1 GEV       0.117500
     41 H13          7.2330     1.5100     1.5470 ha         1 GEV       0.130000
     42 H14          1.1270    -1.2300     1.1410 hc         1 GEV       0.073700
     43 H15          1.3390    -0.9670    -0.5210 hc         1 GEV       0.073700
     44 H16         -2.1770    -4.0260    -0.6400 ha         1 GEV       0.131500
     45 H17         -4.4450    -3.1190    -0.8330 ha         1 GEV       0.125000
     46 H18         -5.9740    -1.3860    -0.7840 ha         1 GEV       0.205000
     47 H20         -8.6610     2.3710    -0.5860 hn         1 GEV       0.353500
     48 C13          2.7480    -2.4530     0.2880 c3         1 GEV      -0.082700
@<TRIPOS>BOND
     1     1    15 ar  
     2     1    16 ar  
     3     1    30 1   
     4     2     3 1   
     5     2    18 1   
     6     2    26 2   
     7     3     6 ar  
     8     3    19 ar  
     9     4     5 ar  
    10     4    20 ar  
    11     4    21 1   
    12     5     6 ar  
    13     5    33 1   
    14     6    34 1   
    15     7    21 2   
    16     7    22 1   
    17     7    29 1   
    18     8    24 1   
    19     8    28 2   
    20     8    29 1   
    21     9    10 1   
    22     9    35 1   
    23     9    36 1   
    24     9    37 1   
    25    10    11 2   
    26    10    25 1   
    27    11    23 1   
    28    11    48 1   
    29    12    13 1   
    30    12    23 2   
    31    12    25 1   
    32    13    14 ar  
    33    13    17 ar  
    34    14    15 ar  
    35    14    38 1   
    36    15    39 1   
    37    16    17 ar  
    38    16    40 1   
    39    17    41 1   
    40    18    42 1   
    41    18    43 1   
    42    18    48 1   
    43    19    20 ar  
    44    19    44 1   
    45    20    45 1   
    46    21    46 1   
    47    22    24 1   
    48    22    27 2   
    49    24    47 1   
    50    31    48 1   
    51    32    48 1   
@<TRIPOS>SUBSTRUCTURE
     1 GEV         1 TEMP              0 ****  ****    0 ROOT
