@<TRIPOS>MOLECULE
GEW
   71    75     1     0     0
SMALL
No Charge or Current Charge


@<TRIPOS>ATOM
      1 C10         -6.0090     0.0480    -0.8760 c3         1 GEW      -0.007100
      2 C15         -1.4020    -0.6390    -1.5730 ca         1 GEW       0.492900
      3 C17          0.9650    -1.0510    -1.2940 ca         1 GEW       0.047000
      4 C21          2.2590    -0.7380    -0.6950 cc         1 GEW      -0.140000
      5 C22          3.1100    -1.6420    -0.0900 cd         1 GEW       0.320500
      6 C24          4.1420     0.2740    -0.1100 cc         1 GEW       0.553500
      7 C28          7.9910     2.4060    -0.2950 ca         1 GEW      -0.040500
      8 C01         -9.0740     1.4750     4.3860 c3         1 GEW       0.148900
      9 C03         -8.1350     1.1290     2.1290 ca         1 GEW       0.107100
     10 C04         -9.1210     1.9280     1.5130 ca         1 GEW      -0.159000
     11 C05         -9.1030     2.1210     0.1200 ca         1 GEW      -0.160000
     12 C06         -8.1000     1.5170    -0.6730 ca         1 GEW       0.104100
     13 C08         -9.0080     2.4990    -2.7550 c3         1 GEW       0.147900
     14 C09         -7.1130     0.7140    -0.0570 ca         1 GEW      -0.081300
     15 C11         -4.8190     1.0010    -1.1270 c3         1 GEW      -0.161400
     16 C12         -3.7110     0.3120    -1.9310 c          1 GEW       0.608100
     17 C16         -0.1860    -0.3270    -0.9490 ca         1 GEW      -0.218000
     18 C18          0.8330    -2.0640    -2.2570 ca         1 GEW      -0.179000
     19 C19         -0.4300    -2.3270    -2.8100 ca         1 GEW       0.373900
     20 C27          7.0570     2.1340     0.7240 ca         1 GEW       0.045400
     21 C29          8.8910     3.4800    -0.1580 ca         1 GEW      -0.165500
     22 C30          8.8560     4.2780     0.9960 ca         1 GEW       0.198000
     23 C32          7.9300     4.0110     2.0160 ca         1 GEW      -0.165500
     24 C33          7.0290     2.9380     1.8810 ca         1 GEW      -0.040500
     25 C36          2.8880    -3.0610     0.2960 ca         1 GEW      -0.129500
     26 C37          3.9980    -3.8680     0.6480 ca         1 GEW      -0.062500
     27 C38          3.8240    -5.2050     1.0460 ca         1 GEW      -0.157500
     28 C39          2.5360    -5.7490     1.1230 ca         1 GEW       0.174000
     29 C41          1.4210    -4.9590     0.8180 ca         1 GEW      -0.157500
     30 C42          1.5930    -3.6220     0.4180 ca         1 GEW      -0.062500
     31 C43         -7.1400     0.5300     1.3410 ca         1 GEW      -0.108000
     32 F31          9.7200     5.3080     1.1260 f          1 GEW      -0.171000
     33 F40          2.3680    -7.0320     1.5110 f          1 GEW      -0.180000
     34 N14         -2.5820     0.0150    -1.1980 ns         1 GEW      -0.337900
     35 N20         -1.5390    -1.6360    -2.4680 nb         1 GEW      -0.672000
     36 N23          4.2740    -0.9920     0.2690 nd         1 GEW      -0.630000
     37 N25          5.0470     1.3250     0.0340 ne         1 GEW      -0.293000
     38 N26          6.1560     1.0520     0.5900 nf         1 GEW      -0.131400
     39 N34          2.9100     0.4750    -0.7090 na         1 GEW      -0.119500
     40 O02         -8.1010     0.9060     3.4910 os         1 GEW      -0.341100
     41 O07         -8.0530     1.6920    -2.0440 os         1 GEW      -0.345100
     42 O13         -3.8240     0.1020    -3.1310 o          1 GEW      -0.523100
     43 H101        -5.6460    -0.8500    -0.3600 hc         1 GEW       0.068200
     44 H102        -6.4050    -0.3040    -1.8370 hc         1 GEW       0.068200
     45 H011        -8.8620     1.1720     5.4190 h1         1 GEW       0.039367
     46 H012        -9.0510     2.5710     4.3420 h1         1 GEW       0.039367
     47 H013       -10.0850     1.1320     4.1320 h1         1 GEW       0.039367
     48 H041        -9.9050     2.4050     2.0950 ha         1 GEW       0.117000
     49 H051        -9.8750     2.7430    -0.3240 ha         1 GEW       0.116000
     50 H081       -10.0250     2.1070    -2.6240 h1         1 GEW       0.039033
     51 H083        -8.9810     3.5380    -2.4020 h1         1 GEW       0.039033
     52 H082        -8.7810     2.4990    -3.8290 h1         1 GEW       0.039033
     53 H112        -5.1800     1.8660    -1.6960 hc         1 GEW       0.063200
     54 H111        -4.4310     1.3320    -0.1560 hc         1 GEW       0.063200
     55 H161        -0.1420     0.4640    -0.2060 ha         1 GEW       0.122000
     56 H181         1.6920    -2.6480    -2.5730 ha         1 GEW       0.140000
     57 H191        -0.5580    -3.1170    -3.5480 h4         1 GEW       0.029100
     58 H291         9.6120     3.6930    -0.9430 ha         1 GEW       0.138000
     59 H321         7.9110     4.6340     2.9060 ha         1 GEW       0.138000
     60 H331         6.3110     2.7290     2.6710 ha         1 GEW       0.136000
     61 H371         5.0090    -3.4680     0.5950 ha         1 GEW       0.127000
     62 H381         4.6860    -5.8170     1.2980 ha         1 GEW       0.132000
     63 H411         0.4220    -5.3780     0.9050 ha         1 GEW       0.132000
     64 H421         0.7030    -3.0270     0.2410 ha         1 GEW       0.127000
     65 H431        -6.3820    -0.0820     1.8230 ha         1 GEW       0.130000
     66 H141        -2.6000     0.3160    -0.2330 hn         1 GEW       0.150000
     67 C35          2.4100     1.7350    -1.2890 c3         1 GEW       0.058900
     68 H281         8.0160     1.7850    -1.1880 ha         1 GEW       0.136000
     69 H353         1.9460     2.3420    -0.5020 h1         1 GEW       0.062367
     70 H351         3.2370     2.2970    -1.7390 h1         1 GEW       0.062367
     71 H352         1.6670     1.5220    -2.0670 h1         1 GEW       0.062367
@<TRIPOS>BOND
     1     1    14 1   
     2     1    15 1   
     3     1    43 1   
     4     1    44 1   
     5     2    17 ar  
     6     2    34 1   
     7     2    35 ar  
     8     3     4 1   
     9     3    17 ar  
    10     3    18 ar  
    11     4     5 2   
    12     4    39 1   
    13     5    25 1   
    14     5    36 1   
    15     6    36 2   
    16     6    37 1   
    17     6    39 1   
    18     7    20 ar  
    19     7    21 ar  
    20     7    68 1   
    21     8    40 1   
    22     8    45 1   
    23     8    46 1   
    24     8    47 1   
    25     9    10 ar  
    26     9    31 ar  
    27     9    40 1   
    28    10    11 ar  
    29    10    48 1   
    30    11    12 ar  
    31    11    49 1   
    32    12    14 ar  
    33    12    41 1   
    34    13    41 1   
    35    13    50 1   
    36    13    51 1   
    37    13    52 1   
    38    14    31 ar  
    39    15    16 1   
    40    15    53 1   
    41    15    54 1   
    42    16    34 1   
    43    16    42 2   
    44    17    55 1   
    45    18    19 ar  
    46    18    56 1   
    47    19    35 ar  
    48    19    57 1   
    49    20    24 ar  
    50    20    38 1   
    51    21    22 ar  
    52    21    58 1   
    53    22    23 ar  
    54    22    32 1   
    55    23    24 ar  
    56    23    59 1   
    57    24    60 1   
    58    25    26 ar  
    59    25    30 ar  
    60    26    27 ar  
    61    26    61 1   
    62    27    28 ar  
    63    27    62 1   
    64    28    29 ar  
    65    28    33 1   
    66    29    30 ar  
    67    29    63 1   
    68    30    64 1   
    69    31    65 1   
    70    34    66 1   
    71    37    38 2   
    72    39    67 1   
    73    67    69 1   
    74    67    70 1   
    75    67    71 1   
@<TRIPOS>SUBSTRUCTURE
     1 GEW         1 TEMP              0 ****  ****    0 ROOT
