@<TRIPOS>MOLECULE
GEW
   71    75     1     0     0
SMALL
abcg2


@<TRIPOS>ATOM
      1 C10         -6.3280    -0.1460    -0.9620 c3         1 GEW      -0.007100
      2 C15         -1.4630    -1.3610    -1.2390 ca         1 GEW       0.492900
      3 C17          0.9230    -1.5230    -1.0760 ca         1 GEW       0.047000
      4 C21          2.2170    -1.0780    -0.5590 cc         1 GEW      -0.140000
      5 C22          3.2240    -1.7780     0.0930 cd         1 GEW       0.320500
      6 C24          3.9180     0.2180    -0.1290 cc         1 GEW       0.553500
      7 C28          6.0240     3.7360    -0.2560 ca         1 GEW      -0.040500
      8 C01        -10.1950     1.5010     3.4920 c3         1 GEW       0.148900
      9 C03         -8.7510     1.2120     1.6350 ca         1 GEW       0.107100
     10 C04         -8.8910     2.5280     1.2240 ca         1 GEW      -0.159000
     11 C05         -8.2070     2.9820     0.0970 ca         1 GEW      -0.160000
     12 C06         -7.3840     2.1320    -0.6260 ca         1 GEW       0.104100
     13 C08         -6.7790     3.8390    -2.1630 c3         1 GEW       0.147900
     14 C09         -7.2370     0.7950    -0.2200 ca         1 GEW      -0.081300
     15 C11         -4.8680     0.0860    -0.5860 c3         1 GEW      -0.161400
     16 C12         -3.9120    -0.8630    -1.2800 c          1 GEW       0.608100
     17 C16         -0.2530    -0.8910    -0.7120 ca         1 GEW      -0.218000
     18 C18          0.8490    -2.6090    -1.9520 ca         1 GEW      -0.179000
     19 C19         -0.3970    -2.9900    -2.4060 ca         1 GEW       0.373900
     20 C27          6.4250     2.5800     0.4230 ca         1 GEW       0.045400
     21 C29          6.8050     4.8730    -0.2090 ca         1 GEW      -0.165500
     22 C30          7.9840     4.8460     0.5220 ca         1 GEW       0.198000
     23 C32          8.4090     3.7200     1.1990 ca         1 GEW      -0.165500
     24 C33          7.6190     2.5840     1.1410 ca         1 GEW      -0.040500
     25 C36          3.2490    -3.1830     0.5030 ca         1 GEW      -0.129500
     26 C37          4.4640    -3.8690     0.5380 ca         1 GEW      -0.062500
     27 C38          4.5270    -5.1940     0.9400 ca         1 GEW      -0.157500
     28 C39          3.3570    -5.8290     1.3110 ca         1 GEW       0.174000
     29 C41          2.1370    -5.1820     1.3000 ca         1 GEW      -0.157500
     30 C42          2.0920    -3.8550     0.8990 ca         1 GEW      -0.062500
     31 C43         -7.9210     0.3610     0.9010 ca         1 GEW      -0.108000
     32 F31          8.7360     5.9520     0.5680 f          1 GEW      -0.171000
     33 F40          3.4080    -7.1120     1.7030 f          1 GEW      -0.180000
     34 N14         -2.6210    -0.7080    -0.8440 ns         1 GEW      -0.337900
     35 N20         -1.5340    -2.3890    -2.0650 nb         1 GEW      -0.672000
     36 N23          4.2650    -0.9560     0.3460 nd         1 GEW      -0.630000
     37 N25          4.6140     1.4020    -0.1350 ne         1 GEW      -0.293000
     38 N26          5.7140     1.3750     0.4440 nf         1 GEW      -0.131400
     39 N34          2.6820     0.1950    -0.6880 na         1 GEW      -0.119500
     40 O02         -9.3650     0.6680     2.7110 os         1 GEW      -0.341100
     41 O07         -6.6870     2.5010    -1.7260 os         1 GEW      -0.345100
     42 O13         -4.2590    -1.6560    -2.1260 o          1 GEW      -0.523100
     43 H101        -6.6070    -1.1720    -0.7170 hc         1 GEW       0.068200
     44 H102        -6.4570    -0.0340    -2.0390 hc         1 GEW       0.068200
     45 H011       -10.5760     0.8880     4.3050 h1         1 GEW       0.039367
     46 H012        -9.6430     2.3450     3.9170 h1         1 GEW       0.039367
     47 H013       -11.0410     1.8910     2.9190 h1         1 GEW       0.039367
     48 H041        -9.5240     3.2270     1.7540 ha         1 GEW       0.117000
     49 H051        -8.3410     4.0140    -0.1950 ha         1 GEW       0.116000
     50 H081        -7.8010     4.1100    -2.4460 h1         1 GEW       0.039033
     51 H083        -6.4300     4.5430    -1.4020 h1         1 GEW       0.039033
     52 H082        -6.1400     3.9260    -3.0380 h1         1 GEW       0.039033
     53 H112        -4.5690     1.1100    -0.8290 hc         1 GEW       0.063200
     54 H111        -4.7400    -0.0150     0.4960 hc         1 GEW       0.063200
     55 H161        -0.2470    -0.0630    -0.0150 ha         1 GEW       0.122000
     56 H181         1.7370    -3.1330    -2.2750 ha         1 GEW       0.140000
     57 H191        -0.4900    -3.8280    -3.0870 h4         1 GEW       0.029100
     58 H291         6.5090     5.7720    -0.7330 ha         1 GEW       0.138000
     59 H321         9.3340     3.7290     1.7590 ha         1 GEW       0.138000
     60 H331         7.9230     1.6840     1.6600 ha         1 GEW       0.136000
     61 H371         5.3730    -3.3640     0.2440 ha         1 GEW       0.127000
     62 H381         5.4710    -5.7220     0.9630 ha         1 GEW       0.132000
     63 H411         1.2360    -5.6960     1.6090 ha         1 GEW       0.132000
     64 H421         1.1400    -3.3410     0.9180 ha         1 GEW       0.127000
     65 H431        -7.8120    -0.6690     1.2200 ha         1 GEW       0.130000
     66 H141        -2.4830     0.0150    -0.1530 hn         1 GEW       0.150000
     67 C35          2.0130     1.3070    -1.3370 c3         1 GEW       0.058900
     68 H281         5.1030     3.7420    -0.8230 ha         1 GEW       0.136000
     69 H353         1.3870     1.8480    -0.6300 h1         1 GEW       0.062367
     70 H351         2.7560     1.9850    -1.7440 h1         1 GEW       0.062367
     71 H352         1.3940     0.9350    -2.1480 h1         1 GEW       0.062367
@<TRIPOS>BOND
     1     1    14 1   
     2     1    15 1   
     3     1    43 1   
     4     1    44 1   
     5     2    17 ar  
     6     2    34 1   
     7     2    35 ar  
     8     3     4 1   
     9     3    17 ar  
    10     3    18 ar  
    11     4     5 2   
    12     4    39 1   
    13     5    25 1   
    14     5    36 1   
    15     6    36 2   
    16     6    37 1   
    17     6    39 1   
    18     7    20 ar  
    19     7    21 ar  
    20     7    68 1   
    21     8    40 1   
    22     8    45 1   
    23     8    46 1   
    24     8    47 1   
    25     9    10 ar  
    26     9    31 ar  
    27     9    40 1   
    28    10    11 ar  
    29    10    48 1   
    30    11    12 ar  
    31    11    49 1   
    32    12    14 ar  
    33    12    41 1   
    34    13    41 1   
    35    13    50 1   
    36    13    51 1   
    37    13    52 1   
    38    14    31 ar  
    39    15    16 1   
    40    15    53 1   
    41    15    54 1   
    42    16    34 1   
    43    16    42 2   
    44    17    55 1   
    45    18    19 ar  
    46    18    56 1   
    47    19    35 ar  
    48    19    57 1   
    49    20    24 ar  
    50    20    38 1   
    51    21    22 ar  
    52    21    58 1   
    53    22    23 ar  
    54    22    32 1   
    55    23    24 ar  
    56    23    59 1   
    57    24    60 1   
    58    25    26 ar  
    59    25    30 ar  
    60    26    27 ar  
    61    26    61 1   
    62    27    28 ar  
    63    27    62 1   
    64    28    29 ar  
    65    28    33 1   
    66    29    30 ar  
    67    29    63 1   
    68    30    64 1   
    69    31    65 1   
    70    34    66 1   
    71    37    38 2   
    72    39    67 1   
    73    67    69 1   
    74    67    70 1   
    75    67    71 1   
@<TRIPOS>SUBSTRUCTURE
     1 GEW         1 TEMP              0 ****  ****    0 ROOT
