@<TRIPOS>MOLECULE
GEX
   30    31     1     0     0
SMALL
abcg2


@<TRIPOS>ATOM
      1 C4           4.5910    -6.8030    61.6370 ca         1 GEX      -0.144000
      2 C5           4.6750    -6.9040    60.2570 ca         1 GEX      -0.072000
      3 C6           3.5760    -6.6120    59.4650 ca         1 GEX      -0.173000
      4 C11          1.4440    -5.5300    57.8200 c6         1 GEX       0.164800
      5 C7           2.3530    -6.2020    60.0130 ca         1 GEX       0.323000
      6 C8           0.0120    -6.6470    59.4020 c6         1 GEX       0.164800
      7 C9          -0.0900    -7.8250    58.4360 c6         1 GEX       0.113800
      8 C10          1.3080    -6.7040    56.8500 c6         1 GEX       0.113800
      9 N1           1.2550    -5.9080    59.2110 nh         1 GEX      -0.816400
     10 N2           0.0750    -7.4520    57.0400 n7         1 GEX      -0.839400
     11 C3           3.4070    -6.3560    62.2000 ca         1 GEX      -0.053000
     12 C1           0.6490    -3.7820    61.4910 c3         1 GEX       0.041900
     13 C2           2.3020    -6.0320    61.4160 ca         1 GEX      -0.138000
     14 H5           5.4390    -7.0420    62.2650 ha         1 GEX       0.117000
     15 H6           5.5930    -7.2310    59.7860 ha         1 GEX       0.112000
     16 H7           3.6700    -6.7350    58.3940 ha         1 GEX       0.112000
     17 H16          2.4030    -5.0240    57.7000 h1         1 GEX       0.059450
     18 H15          0.6700    -4.7920    57.5760 h1         1 GEX       0.059450
     19 H8          -0.8290    -5.9630    59.2330 h1         1 GEX       0.059450
     20 H9          -0.0650    -6.9960    60.4290 h1         1 GEX       0.059450
     21 H11         -1.0570    -8.3160    58.5630 h1         1 GEX       0.059700
     22 H10          0.6800    -8.5630    58.6880 h1         1 GEX       0.059700
     23 H13          2.1460    -7.3960    56.9740 h1         1 GEX       0.059700
     24 H14          1.3490    -6.3350    55.8230 h1         1 GEX       0.059700
     25 H12         -0.7090    -6.8710    56.7630 hn         1 GEX       0.402000
     26 H4           3.3410    -6.2180    63.2720 ha         1 GEX       0.124000
     27 H1          -0.1460    -3.2850    62.0450 h1         1 GEX       0.063033
     28 H2           1.5540    -3.1830    61.5580 h1         1 GEX       0.063033
     29 H3           0.3510    -3.8860    60.4510 h1         1 GEX       0.063033
     30 S1           0.8880    -5.3960    62.2770 ss         1 GEX      -0.221000
@<TRIPOS>BOND
     1     1     2 ar  
     2     1    11 ar  
     3     1    14 1   
     4     2     3 ar  
     5     2    15 1   
     6     3     5 ar  
     7     3    16 1   
     8     4     8 1   
     9     4     9 1   
    10     4    17 1   
    11     4    18 1   
    12     5     9 1   
    13     5    13 ar  
    14     6     7 1   
    15     6     9 1   
    16     6    19 1   
    17     6    20 1   
    18     7    10 1   
    19     7    21 1   
    20     7    22 1   
    21     8    10 1   
    22     8    23 1   
    23     8    24 1   
    24    10    25 1   
    25    11    13 ar  
    26    11    26 1   
    27    12    27 1   
    28    12    28 1   
    29    12    29 1   
    30    12    30 1   
    31    13    30 1   
@<TRIPOS>SUBSTRUCTURE
     1 GEX         1 TEMP              0 ****  ****    0 ROOT
