@<TRIPOS>MOLECULE
GEX
   30    31     1     0     0
SMALL
No Charge or Current Charge


@<TRIPOS>ATOM
      1 C4           4.6750    -6.6880    61.7740 ca         1 GEX      -0.144000
      2 C5           4.7590    -6.9880    60.4080 ca         1 GEX      -0.072000
      3 C6           3.6440    -6.7850    59.5790 ca         1 GEX      -0.173000
      4 C11          1.4640    -5.5250    57.8640 c6         1 GEX       0.164800
      5 C7           2.4360    -6.2770    60.0980 ca         1 GEX       0.323000
      6 C8           0.0780    -6.9220    59.4360 c6         1 GEX       0.164800
      7 C9          -0.1970    -7.9140    58.2570 c6         1 GEX       0.113800
      8 C10          1.1540    -6.5540    56.7260 c6         1 GEX       0.113800
      9 N1           1.3260    -6.1210    59.2320 nh         1 GEX      -0.816400
     10 N2          -0.1490    -7.2560    56.9180 n7         1 GEX      -0.839400
     11 C3           3.4800    -6.1820    62.3100 ca         1 GEX      -0.053000
     12 C1           0.6260    -3.6890    61.3690 c3         1 GEX       0.041900
     13 C2           2.3600    -5.9670    61.4850 ca         1 GEX      -0.138000
     14 H5           5.5360    -6.8470    62.4200 ha         1 GEX       0.117000
     15 H6           5.6830    -7.3840    59.9920 ha         1 GEX       0.112000
     16 H7           3.7170    -7.0410    58.5260 ha         1 GEX       0.112000
     17 H16          2.4750    -5.1190    57.7140 h1         1 GEX       0.059450
     18 H15          0.7750    -4.6720    57.7670 h1         1 GEX       0.059450
     19 H8          -0.7820    -6.2430    59.5430 h1         1 GEX       0.059450
     20 H9           0.1390    -7.4990    60.3700 h1         1 GEX       0.059450
     21 H11         -1.1790    -8.3880    58.4050 h1         1 GEX       0.059700
     22 H10          0.5570    -8.7150    58.2930 h1         1 GEX       0.059700
     23 H13          1.9640    -7.2990    56.6950 h1         1 GEX       0.059700
     24 H14          1.1570    -6.0330    55.7560 h1         1 GEX       0.059700
     25 H12         -0.8950    -6.5500    56.8870 hn         1 GEX       0.402000
     26 H4           3.4250    -5.9470    63.3710 ha         1 GEX       0.124000
     27 H1          -0.2170    -3.1500    61.8200 h1         1 GEX       0.063033
     28 H2           1.5290    -3.0720    61.4430 h1         1 GEX       0.063033
     29 H3           0.4030    -3.8780    60.3130 h1         1 GEX       0.063033
     30 S1           0.8890    -5.2840    62.2650 ss         1 GEX      -0.221000
@<TRIPOS>BOND
     1     1     2 ar  
     2     1    11 ar  
     3     1    14 1   
     4     2     3 ar  
     5     2    15 1   
     6     3     5 ar  
     7     3    16 1   
     8     4     8 1   
     9     4     9 1   
    10     4    17 1   
    11     4    18 1   
    12     5     9 1   
    13     5    13 ar  
    14     6     7 1   
    15     6     9 1   
    16     6    19 1   
    17     6    20 1   
    18     7    10 1   
    19     7    21 1   
    20     7    22 1   
    21     8    10 1   
    22     8    23 1   
    23     8    24 1   
    24    10    25 1   
    25    11    13 ar  
    26    11    26 1   
    27    12    27 1   
    28    12    28 1   
    29    12    29 1   
    30    12    30 1   
    31    13    30 1   
@<TRIPOS>SUBSTRUCTURE
     1 GEX         1 TEMP              0 ****  ****    0 ROOT
