@<TRIPOS>MOLECULE
GEZ
   51    53     1     0     0
SMALL
abcg2


@<TRIPOS>ATOM
      1 C1          -4.2970     2.3660    -0.6620 c3         1 GEZ       0.149900
      2 O2          -3.6870     1.0980    -0.4990 os         1 GEZ      -0.328100
      3 C3          -2.3660     1.0320    -0.3640 ca         1 GEZ       0.235100
      4 C4          -1.5290     2.1220    -0.4000 ca         1 GEZ      -0.222000
      5 C5          -0.1330     1.9910    -0.2500 ca         1 GEZ       0.376000
      6 N6           0.6080     3.1190    -0.3080 nb         1 GEZ      -0.712000
      7 C7           1.9060     2.9790    -0.1740 ca         1 GEZ       0.416900
      8 C8           2.5780     1.7720     0.0240 ca         1 GEZ      -0.278000
      9 C9           1.8480     0.5970     0.0910 ca         1 GEZ       0.410000
     10 N10          2.4330    -0.6140     0.2910 nu         1 GEZ      -0.975000
     11 C11          3.8050    -0.8290     0.2610 cc         1 GEZ       0.192000
     12 N12          4.4730    -1.3350     1.3160 na         1 GEZ      -0.015200
     13 N13          5.7670    -1.4940     1.0670 nc         1 GEZ      -0.505800
     14 C14          5.9450    -1.0600    -0.1690 cd         1 GEZ       0.262300
     15 C15          7.2870    -1.0710    -0.8150 c3         1 GEZ      -0.121400
     16 C16          4.7280    -0.6300    -0.7430 cd         1 GEZ      -0.180300
     17 C17          4.4940    -0.0910    -2.1110 c3         1 GEZ      -0.009800
     18 C18          0.4280     0.7030    -0.0530 ca         1 GEZ      -0.189000
     19 C19         -0.4390    -0.4020    -0.0310 ca         1 GEZ       0.048000
     20 C20         -1.7960    -0.2580    -0.1670 ca         1 GEZ      -0.284500
     21 S21         -2.7650    -1.7590    -0.1590 sy         1 GEZ       1.019500
     22 O22         -3.8870    -1.6270    -1.0830 o          1 GEZ      -0.518500
     23 O23         -1.8200    -2.8530    -0.4070 o          1 GEZ      -0.518500
     24 C24         -3.4040    -1.9830     1.5460 c3         1 GEZ      -0.211000
     25 C25         -2.2200    -2.0820     2.5000 c3         1 GEZ      -0.082100
     26 C26         -4.3110    -0.8210     1.9280 c3         1 GEZ      -0.082100
     27 C27         -4.1920    -3.2920     1.5060 c3         1 GEZ      -0.082100
     28 H1          -3.9600     2.8600    -1.5760 h1         1 GEZ       0.050033
     29 H2          -5.3650     2.1810    -0.7320 h1         1 GEZ       0.050033
     30 H3          -4.1030     3.0210     0.1900 h1         1 GEZ       0.050033
     31 H4          -1.9120     3.1210    -0.5560 ha         1 GEZ       0.140000
     32 H5           2.4950     3.8900    -0.2170 h4         1 GEZ       0.018100
     33 H6           3.6520     1.7760     0.1330 ha         1 GEZ       0.139000
     34 H7           1.8520    -1.4180     0.4620 hn         1 GEZ       0.509000
     35 H8           4.0890    -1.5990     2.2100 hn         1 GEZ       0.374000
     36 H9           7.2900    -1.6890    -1.7150 hc         1 GEZ       0.049367
     37 H10          7.5930    -0.0680    -1.1130 hc         1 GEZ       0.049367
     38 H11          8.0400    -1.4660    -0.1350 hc         1 GEZ       0.049367
     39 H12          4.7190     0.9760    -2.1740 hc         1 GEZ       0.043033
     40 H13          5.1200    -0.5970    -2.8460 hc         1 GEZ       0.043033
     41 H14          3.4570    -0.2210    -2.4180 hc         1 GEZ       0.043033
     42 H15         -0.0510    -1.4040     0.0900 ha         1 GEZ       0.131000
     43 H16         -1.6240    -1.1690     2.5110 hc         1 GEZ       0.051700
     44 H17         -2.6070    -2.2290     3.5090 hc         1 GEZ       0.051700
     45 H18         -1.5690    -2.9240     2.2710 hc         1 GEZ       0.051700
     46 H19         -5.1300    -0.6900     1.2250 hc         1 GEZ       0.051700
     47 H20         -4.7410    -1.0410     2.9060 hc         1 GEZ       0.051700
     48 H21         -3.7640     0.1160     2.0190 hc         1 GEZ       0.051700
     49 H22         -3.5700    -4.1400     1.2220 hc         1 GEZ       0.051700
     50 H23         -4.5780    -3.4870     2.5070 hc         1 GEZ       0.051700
     51 H24         -5.0430    -3.2370     0.8290 hc         1 GEZ       0.051700
@<TRIPOS>BOND
     1     1     2 1   
     2     1    28 1   
     3     1    29 1   
     4     1    30 1   
     5     2     3 1   
     6     3     4 ar  
     7     3    20 ar  
     8     4     5 ar  
     9     4    31 1   
    10     5     6 ar  
    11     5    18 ar  
    12     6     7 ar  
    13     7     8 ar  
    14     7    32 1   
    15     8     9 ar  
    16     8    33 1   
    17     9    10 1   
    18     9    18 ar  
    19    10    11 1   
    20    10    34 1   
    21    11    12 1   
    22    11    16 2   
    23    12    13 1   
    24    12    35 1   
    25    13    14 2   
    26    14    15 1   
    27    14    16 1   
    28    15    36 1   
    29    15    37 1   
    30    15    38 1   
    31    16    17 1   
    32    17    39 1   
    33    17    40 1   
    34    17    41 1   
    35    18    19 ar  
    36    19    20 ar  
    37    19    42 1   
    38    20    21 1   
    39    21    22 2   
    40    21    23 2   
    41    21    24 1   
    42    24    25 1   
    43    24    26 1   
    44    24    27 1   
    45    25    43 1   
    46    25    44 1   
    47    25    45 1   
    48    26    46 1   
    49    26    47 1   
    50    26    48 1   
    51    27    49 1   
    52    27    50 1   
    53    27    51 1   
@<TRIPOS>SUBSTRUCTURE
     1 GEZ         1 TEMP              0 ****  ****    0 ROOT
