@<TRIPOS>MOLECULE
GEZ
   51    53     1     0     0
SMALL
No Charge or Current Charge


@<TRIPOS>ATOM
      1 C1          -4.3610     2.2630    -0.9730 c3         1 GEZ       0.149900
      2 O2          -3.6740     1.0230    -0.7290 os         1 GEZ      -0.328100
      3 C3          -2.3170     0.9490    -0.4860 ca         1 GEZ       0.235100
      4 C4          -1.5170     2.1080    -0.4810 ca         1 GEZ      -0.222000
      5 C5          -0.1430     2.0450    -0.2230 ca         1 GEZ       0.376000
      6 N6           0.5660     3.1930    -0.2420 nb         1 GEZ      -0.712000
      7 C7           1.8900     3.1420     0.0040 ca         1 GEZ       0.416900
      8 C8           2.5580     1.9530     0.2810 ca         1 GEZ      -0.278000
      9 C9           1.8380     0.7620     0.3040 ca         1 GEZ       0.410000
     10 N10          2.5100    -0.4240     0.6060 nu         1 GEZ      -0.975000
     11 C11          3.8230    -0.8040     0.4210 cc         1 GEZ       0.192000
     12 N12          4.5380    -1.6220     1.2880 na         1 GEZ      -0.015200
     13 N13          5.8220    -1.9070     0.8480 nc         1 GEZ      -0.505800
     14 C14          5.8680    -1.2760    -0.3110 cd         1 GEZ       0.262300
     15 C15          7.1110    -1.3390    -1.1580 c3         1 GEZ      -0.121400
     16 C16          4.6650    -0.5990    -0.6350 cd         1 GEZ      -0.180300
     17 C17          4.3920     0.1710    -1.9060 c3         1 GEZ      -0.009800
     18 C18          0.4540     0.7970     0.0460 ca         1 GEZ      -0.189000
     19 C19         -0.3380    -0.3710     0.0320 ca         1 GEZ       0.048000
     20 C20         -1.7210    -0.3010    -0.2300 ca         1 GEZ      -0.284500
     21 S21         -2.6710    -1.8450    -0.2230 sy         1 GEZ       1.019500
     22 O22         -3.8290    -1.7180    -1.1190 o          1 GEZ      -0.518500
     23 O23         -1.7240    -2.9550    -0.4060 o          1 GEZ      -0.518500
     24 C24         -3.3290    -1.9940     1.5090 c3         1 GEZ      -0.211000
     25 C25         -2.1510    -2.0260     2.5270 c3         1 GEZ      -0.082100
     26 C26         -4.2620    -0.7970     1.8500 c3         1 GEZ      -0.082100
     27 C27         -4.1380    -3.3180     1.6230 c3         1 GEZ      -0.082100
     28 H1          -3.9660     2.7600    -1.8680 h1         1 GEZ       0.050033
     29 H2          -5.4310     2.0780    -1.1330 h1         1 GEZ       0.050033
     30 H3          -4.2600     2.9410    -0.1160 h1         1 GEZ       0.050033
     31 H4          -1.9460     3.0840    -0.6790 ha         1 GEZ       0.140000
     32 H5           2.4270     4.0900    -0.0180 h4         1 GEZ       0.018100
     33 H6           3.6220     1.9680     0.4870 ha         1 GEZ       0.139000
     34 H7           1.9570    -1.0790     1.1600 hn         1 GEZ       0.509000
     35 H8           4.1940    -1.9790     2.1740 hn         1 GEZ       0.374000
     36 H9           6.9450    -1.9610    -2.0450 hc         1 GEZ       0.049367
     37 H10          7.4010    -0.3380    -1.4970 hc         1 GEZ       0.049367
     38 H11          7.9580    -1.7610    -0.6050 hc         1 GEZ       0.049367
     39 H12          4.7290     1.2100    -1.8150 hc         1 GEZ       0.043033
     40 H13          4.9110    -0.2770    -2.7620 hc         1 GEZ       0.043033
     41 H14          3.3220     0.1830    -2.1440 hc         1 GEZ       0.043033
     42 H15          0.1200    -1.3390     0.2200 ha         1 GEZ       0.131000
     43 H16         -1.5770    -1.0910     2.5040 hc         1 GEZ       0.051700
     44 H17         -2.5240    -2.1570     3.5500 hc         1 GEZ       0.051700
     45 H18         -1.4630    -2.8540     2.3160 hc         1 GEZ       0.051700
     46 H19         -5.0850    -0.7140     1.1290 hc         1 GEZ       0.051700
     47 H20         -4.7050    -0.9210     2.8460 hc         1 GEZ       0.051700
     48 H21         -3.7120     0.1510     1.8540 hc         1 GEZ       0.051700
     49 H22         -3.5080    -4.1880     1.4010 hc         1 GEZ       0.051700
     50 H23         -4.5400    -3.4470     2.6350 hc         1 GEZ       0.051700
     51 H24         -4.9840    -3.3260     0.9240 hc         1 GEZ       0.051700
@<TRIPOS>BOND
     1     1     2 1   
     2     1    28 1   
     3     1    29 1   
     4     1    30 1   
     5     2     3 1   
     6     3     4 ar  
     7     3    20 ar  
     8     4     5 ar  
     9     4    31 1   
    10     5     6 ar  
    11     5    18 ar  
    12     6     7 ar  
    13     7     8 ar  
    14     7    32 1   
    15     8     9 ar  
    16     8    33 1   
    17     9    10 1   
    18     9    18 ar  
    19    10    11 1   
    20    10    34 1   
    21    11    12 1   
    22    11    16 2   
    23    12    13 1   
    24    12    35 1   
    25    13    14 2   
    26    14    15 1   
    27    14    16 1   
    28    15    36 1   
    29    15    37 1   
    30    15    38 1   
    31    16    17 1   
    32    17    39 1   
    33    17    40 1   
    34    17    41 1   
    35    18    19 ar  
    36    19    20 ar  
    37    19    42 1   
    38    20    21 1   
    39    21    22 2   
    40    21    23 2   
    41    21    24 1   
    42    24    25 1   
    43    24    26 1   
    44    24    27 1   
    45    25    43 1   
    46    25    44 1   
    47    25    45 1   
    48    26    46 1   
    49    26    47 1   
    50    26    48 1   
    51    27    49 1   
    52    27    50 1   
    53    27    51 1   
@<TRIPOS>SUBSTRUCTURE
     1 GEZ         1 TEMP              0 ****  ****    0 ROOT
