@<TRIPOS>MOLECULE
GF0
   32    34     1     0     0
SMALL
No Charge or Current Charge


@<TRIPOS>ATOM
      1 F           -1.9240    -2.5380    -0.4230 f          1 GF0      -0.239000
      2 N1           4.0710    -0.1910     0.0140 ns         1 GF0      -0.460400
      3 C2           3.2670    -1.1930    -0.4030 cc         1 GF0       0.743800
      4 N2           3.8540    -2.3460    -0.6450 nv         1 GF0      -1.053200
      5 N3           1.9670    -1.1510    -0.5910 nd         1 GF0      -0.720100
      6 C4           1.4280     0.1020    -0.3070 cd         1 GF0       0.137400
      7 C5           2.1580     1.1770     0.1220 cc         1 GF0       0.091500
      8 C6           3.6250     1.0600     0.3100 c          1 GF0       0.522500
      9 O6           4.3790     1.9480     0.6820 o          1 GF0      -0.512000
     10 N7           1.3450     2.2690     0.3190 nc         1 GF0      -0.598000
     11 C8           0.1160     1.8520     0.0060 cd         1 GF0       0.410400
     12 N9           0.1210     0.5130    -0.3850 na         1 GF0      -0.209500
     13 C1          -1.0230    -0.2980    -0.7980 c5         1 GF0       0.294300
     14 C7          -1.4610    -1.3880     0.2340 c5         1 GF0       0.120300
     15 C3          -2.6150    -0.6510     0.9820 c5         1 GF0       0.110300
     16 O3          -3.4970    -1.5270     1.7090 oh         1 GF0      -0.685000
     17 C9          -3.2940     0.0210    -0.2440 c5         1 GF0       0.158300
     18 O4          -2.1740     0.5680    -0.9830 os         1 GF0      -0.427000
     19 C10         -4.3180     1.1350     0.1060 c3         1 GF0       0.163600
     20 O5          -5.0180     1.5960    -1.0660 oh         1 GF0      -0.703000
     21 HN2          4.6550    -2.5710    -0.0680 hn         1 GF0       0.506500
     22 HN2A         3.1990    -3.1050    -0.7780 hn         1 GF0       0.506500
     23 H8          -0.7910     2.4440     0.0410 h5         1 GF0       0.069100
     24 H1          -0.7350    -0.7670    -1.7480 h2         1 GF0       0.119700
     25 H2          -0.6390    -1.6800     0.9000 h1         1 GF0       0.094700
     26 H3          -2.2050     0.1170     1.6540 h1         1 GF0       0.053700
     27 H6          -2.9630    -1.9820     2.4030 ho         1 GF0       0.516000
     28 H4          -3.7980    -0.7340    -0.8650 h1         1 GF0       0.099700
     29 H5'A        -5.0350     0.7330     0.8340 h1         1 GF0       0.029200
     30 H5          -3.7860     1.9660     0.5900 h1         1 GF0       0.029200
     31 H5T         -5.6120     2.3280    -0.7780 ho         1 GF0       0.508000
     32 HN1          5.0610    -0.3520     0.0900 hn         1 GF0       0.322500
@<TRIPOS>BOND
     1     1    14 1   
     2     2     3 1   
     3     2     8 1   
     4     2    32 1   
     5     3     4 1   
     6     3     5 2   
     7     4    21 1   
     8     4    22 1   
     9     5     6 1   
    10     6     7 2   
    11     6    12 1   
    12     7     8 1   
    13     7    10 1   
    14     8     9 2   
    15    10    11 2   
    16    11    12 1   
    17    11    23 1   
    18    12    13 1   
    19    13    14 1   
    20    13    18 1   
    21    13    24 1   
    22    14    15 1   
    23    14    25 1   
    24    15    16 1   
    25    15    17 1   
    26    15    26 1   
    27    16    27 1   
    28    17    18 1   
    29    17    19 1   
    30    17    28 1   
    31    19    20 1   
    32    19    29 1   
    33    19    30 1   
    34    20    31 1   
@<TRIPOS>SUBSTRUCTURE
     1 GF0         1 TEMP              0 ****  ****    0 ROOT
