@<TRIPOS>MOLECULE
GF0
   32    34     1     0     0
SMALL
abcg2


@<TRIPOS>ATOM
      1 F           -1.9570    -2.6000    -0.5140 f          1 GF0      -0.239000
      2 N1           3.8330    -0.0910     0.1290 ns         1 GF0      -0.460400
      3 C2           3.1140    -1.1670    -0.3060 cc         1 GF0       0.743800
      4 N2           3.7860    -2.3010    -0.5270 nv         1 GF0      -1.053200
      5 N3           1.8230    -1.1180    -0.5330 nd         1 GF0      -0.720100
      6 C4           1.2960     0.0910    -0.2960 cd         1 GF0       0.137400
      7 C5           1.9280     1.2390     0.1440 cc         1 GF0       0.091500
      8 C6           3.3300     1.1900     0.3940 c          1 GF0       0.522500
      9 O6           4.0700     2.0790     0.7810 o          1 GF0      -0.512000
     10 N7           1.0320     2.2690     0.2570 nc         1 GF0      -0.598000
     11 C8          -0.1070     1.7620    -0.1030 cd         1 GF0       0.410400
     12 N9          -0.0100     0.4340    -0.4470 na         1 GF0      -0.209500
     13 C1          -1.0550    -0.4620    -0.9290 c5         1 GF0       0.294300
     14 C7          -1.4230    -1.4950     0.1310 c5         1 GF0       0.120300
     15 C3          -2.5310    -0.7740     0.8880 c5         1 GF0       0.110300
     16 O3          -3.4160    -1.5940     1.5830 oh         1 GF0      -0.685000
     17 C9          -3.2450    -0.0390    -0.2440 c5         1 GF0       0.158300
     18 O4          -2.2120     0.2710    -1.1860 os         1 GF0      -0.427000
     19 C10         -3.9410     1.2190     0.2080 c3         1 GF0       0.163600
     20 O5          -4.5730     1.8140    -0.8970 oh         1 GF0      -0.703000
     21 HN2          4.7390    -2.4210    -0.2290 hn         1 GF0       0.506500
     22 HN2A         3.2610    -3.1340    -0.7330 hn         1 GF0       0.506500
     23 H8          -1.0380     2.3020    -0.1510 h5         1 GF0       0.069100
     24 H1          -0.6880    -0.9390    -1.8420 h2         1 GF0       0.119700
     25 H2          -0.5830    -1.8260     0.7420 h1         1 GF0       0.094700
     26 H3          -2.0510    -0.0380     1.5500 h1         1 GF0       0.053700
     27 H6          -3.0130    -1.8490     2.4180 ho         1 GF0       0.516000
     28 H4          -3.9720    -0.7090    -0.7200 h1         1 GF0       0.099700
     29 H5'A        -4.6590     0.9360     0.9900 h1         1 GF0       0.029200
     30 H5          -3.2100     1.8910     0.6770 h1         1 GF0       0.029200
     31 H5T         -5.0010     2.6220    -0.6000 ho         1 GF0       0.508000
     32 HN1          4.8280    -0.2080     0.2800 hn         1 GF0       0.322500
@<TRIPOS>BOND
     1     1    14 1   
     2     2     3 1   
     3     2     8 1   
     4     2    32 1   
     5     3     4 1   
     6     3     5 2   
     7     4    21 1   
     8     4    22 1   
     9     5     6 1   
    10     6     7 2   
    11     6    12 1   
    12     7     8 1   
    13     7    10 1   
    14     8     9 2   
    15    10    11 2   
    16    11    12 1   
    17    11    23 1   
    18    12    13 1   
    19    13    14 1   
    20    13    18 1   
    21    13    24 1   
    22    14    15 1   
    23    14    25 1   
    24    15    16 1   
    25    15    17 1   
    26    15    26 1   
    27    16    27 1   
    28    17    18 1   
    29    17    19 1   
    30    17    28 1   
    31    19    20 1   
    32    19    29 1   
    33    19    30 1   
    34    20    31 1   
@<TRIPOS>SUBSTRUCTURE
     1 GF0         1 TEMP              0 ****  ****    0 ROOT
