@<TRIPOS>MOLECULE
GF1
   31    33     1     0     0
SMALL
abcg2


@<TRIPOS>ATOM
      1 O10          0.0390    -2.5260    -0.7290 o          1 GF1      -0.522000
      2 C7           0.2910    -1.5490    -0.0610 c          1 GF1       0.581500
      3 N8          -0.6540    -0.6880     0.4520 n          1 GF1      -0.326400
      4 C12         -2.0780    -0.8100     0.1920 c3         1 GF1      -0.041300
      5 C14         -2.5860     0.3910    -0.6520 c          1 GF1       0.729000
      6 O16         -3.7870     0.6820    -0.5150 o          1 GF1      -0.721000
      7 O15         -1.7650     0.9050    -1.4310 o          1 GF1      -0.721000
      8 C13         -2.8670    -1.0800     1.4640 c3         1 GF1      -0.072100
      9 C2           1.6530    -1.0700     0.3570 c5         1 GF1      -0.161700
     10 C3           1.3900     0.1930     1.1880 c5         1 GF1      -0.161700
     11 C9          -0.1050     0.3680     1.1460 c          1 GF1       0.581500
     12 O11         -0.7470     1.2620     1.6460 o          1 GF1      -0.522000
     13 C1           2.5770    -0.5690    -0.7700 c5         1 GF1      -0.052200
     14 C6           1.8060     0.3690    -1.7140 c5         1 GF1      -0.080900
     15 C5           1.6080     1.6500    -0.8640 c5         1 GF1      -0.080900
     16 C17          3.4310     0.4300     0.0250 c5         1 GF1      -0.094400
     17 C4           2.2350     1.2760     0.4840 c5         1 GF1      -0.052200
     18 H12         -2.1740    -1.6880    -0.4530 h1         1 GF1       0.057700
     19 H13         -2.8640    -0.2280     2.1390 hc         1 GF1       0.025367
     20 H13A        -3.9010    -1.3050     1.2120 hc         1 GF1       0.025367
     21 H13B        -2.4600    -1.9420     1.9950 hc         1 GF1       0.025367
     22 H2           2.1450    -1.8620     0.9270 hc         1 GF1       0.065700
     23 H3           1.6990     0.0840     2.2300 hc         1 GF1       0.065700
     24 H1           3.1130    -1.3720    -1.2760 hc         1 GF1       0.062200
     25 H6           2.4060     0.5720    -2.6030 hc         1 GF1       0.063200
     26 H6A          0.8570    -0.0430    -2.0580 hc         1 GF1       0.063200
     27 H5           2.1510     2.4950    -1.2920 hc         1 GF1       0.063200
     28 H5A          0.5610     1.9450    -0.7950 hc         1 GF1       0.063200
     29 H17          3.9830    -0.0300     0.8480 hc         1 GF1       0.037200
     30 H17A         4.1330     0.9860    -0.6000 hc         1 GF1       0.037200
     31 H4           2.4600     2.1300     1.1230 hc         1 GF1       0.062200
@<TRIPOS>BOND
     1     1     2 2   
     2     2     3 1   
     3     2     9 1   
     4     3     4 1   
     5     3    11 1   
     6     4     5 1   
     7     4     8 1   
     8     4    18 1   
     9     5     6 1   
    10     5     7 1   
    11     8    19 1   
    12     8    20 1   
    13     8    21 1   
    14     9    10 1   
    15     9    13 1   
    16     9    22 1   
    17    10    11 1   
    18    10    17 1   
    19    10    23 1   
    20    11    12 2   
    21    13    14 1   
    22    13    16 1   
    23    13    24 1   
    24    14    15 1   
    25    14    25 1   
    26    14    26 1   
    27    15    17 1   
    28    15    27 1   
    29    15    28 1   
    30    16    17 1   
    31    16    29 1   
    32    16    30 1   
    33    17    31 1   
@<TRIPOS>SUBSTRUCTURE
     1 GF1         1 TEMP              0 ****  ****    0 ROOT
