@<TRIPOS>MOLECULE
GF1
   31    33     1     0     0
SMALL
No Charge or Current Charge


@<TRIPOS>ATOM
      1 O10         -0.0210    -2.6040    -0.4850 o          1 GF1      -0.522000
      2 C7           0.2770    -1.5300     0.0200 c          1 GF1       0.581500
      3 N8          -0.6230    -0.5430     0.4220 n          1 GF1      -0.326400
      4 C12         -2.0810    -0.6630     0.0950 c3         1 GF1      -0.041300
      5 C14         -2.7450     0.6700    -0.3850 c          1 GF1       0.729000
      6 O16         -3.7250     1.1070     0.2050 o          1 GF1      -0.721000
      7 O15         -2.2830     1.2000    -1.3860 o          1 GF1      -0.721000
      8 C13         -2.8490    -1.3720     1.2390 c3         1 GF1      -0.072100
      9 C2           1.6580    -1.0530     0.5110 c5         1 GF1      -0.161700
     10 C3           1.3980     0.3000     1.2450 c5         1 GF1      -0.161700
     11 C9          -0.1220     0.5420     1.1460 c          1 GF1       0.581500
     12 O11         -0.7900     1.3920     1.7180 o          1 GF1      -0.522000
     13 C1           2.6330    -0.6440    -0.6560 c5         1 GF1      -0.052200
     14 C6           1.8740     0.2080    -1.7310 c5         1 GF1      -0.080900
     15 C5           1.6180     1.5600    -0.9970 c5         1 GF1      -0.080900
     16 C17          3.4750     0.4500     0.0410 c5         1 GF1      -0.094400
     17 C4           2.2570     1.3270     0.4150 c5         1 GF1      -0.052200
     18 H12         -2.1630    -1.3210    -0.7780 h1         1 GF1       0.057700
     19 H13         -2.8410    -0.7640     2.1520 hc         1 GF1       0.025367
     20 H13A        -3.8910    -1.5550     0.9520 hc         1 GF1       0.025367
     21 H13B        -2.3880    -2.3400     1.4700 hc         1 GF1       0.025367
     22 H2           2.1070    -1.8260     1.1450 hc         1 GF1       0.065700
     23 H3           1.6990     0.3010     2.2980 hc         1 GF1       0.065700
     24 H1           3.2090    -1.4800    -1.0730 hc         1 GF1       0.062200
     25 H6           2.5080     0.3670    -2.6110 hc         1 GF1       0.063200
     26 H6A          0.9550    -0.2560    -2.1070 hc         1 GF1       0.063200
     27 H5           2.1290     2.3790    -1.5180 hc         1 GF1       0.063200
     28 H5A          0.5600     1.8400    -0.9700 hc         1 GF1       0.063200
     29 H17          4.0320     0.0830     0.9120 hc         1 GF1       0.037200
     30 H17A         4.1840     0.9500    -0.6310 hc         1 GF1       0.037200
     31 H4           2.4970     2.2510     0.9550 hc         1 GF1       0.062200
@<TRIPOS>BOND
     1     1     2 2   
     2     2     3 1   
     3     2     9 1   
     4     3     4 1   
     5     3    11 1   
     6     4     5 1   
     7     4     8 1   
     8     4    18 1   
     9     5     6 1   
    10     5     7 1   
    11     8    19 1   
    12     8    20 1   
    13     8    21 1   
    14     9    10 1   
    15     9    13 1   
    16     9    22 1   
    17    10    11 1   
    18    10    17 1   
    19    10    23 1   
    20    11    12 2   
    21    13    14 1   
    22    13    16 1   
    23    13    24 1   
    24    14    15 1   
    25    14    25 1   
    26    14    26 1   
    27    15    17 1   
    28    15    27 1   
    29    15    28 1   
    30    16    17 1   
    31    16    29 1   
    32    16    30 1   
    33    17    31 1   
@<TRIPOS>SUBSTRUCTURE
     1 GF1         1 TEMP              0 ****  ****    0 ROOT
