@<TRIPOS>MOLECULE
GF3
   29    31     1     0     0
SMALL
No Charge or Current Charge


@<TRIPOS>ATOM
      1 C4           1.2360    -5.6600    60.6190 ca         1 GF3      -0.114300
      2 C5           1.9880    -6.4010    61.5010 ca         1 GF3      -0.117300
      3 C6           2.1900    -5.9800    62.8250 ca         1 GF3      -0.088000
      4 C11         -0.2770    -7.7500    57.6980 c6         1 GF3       0.153800
      5 C7           2.5000    -7.6390    60.8160 c5         1 GF3       0.204900
      6 C8           1.1870    -6.3650    59.2810 c5         1 GF3       0.230300
      7 C9           1.4750    -5.4230    58.0830 c6         1 GF3      -0.112400
      8 C10          1.3470    -6.1670    56.7340 c6         1 GF3       0.153800
      9 C12         -0.1900    -7.0530    59.0760 c6         1 GF3      -0.112400
     10 N1           0.0090    -6.7950    56.6000 n7         1 GF3      -0.845400
     11 C3           0.6340    -4.4530    61.0140 ca         1 GF3      -0.084000
     12 C1           1.5990    -4.7690    63.2420 ca         1 GF3      -0.106000
     13 C2           0.8230    -4.0090    62.3390 ca         1 GF3      -0.110000
     14 O1           2.2450    -7.3740    59.3980 os         1 GF3      -0.456000
     15 H4           2.7880    -6.5730    63.5130 ha         1 GF3       0.118000
     16 H13          0.4430    -8.5820    57.6620 h1         1 GF3       0.057450
     17 H6           1.9400    -8.5300    61.1300 h1         1 GF3       0.054200
     18 H5           3.5740    -7.8020    60.9790 h1         1 GF3       0.054200
     19 H7           2.4820    -4.9970    58.1790 hc         1 GF3       0.050700
     20 H8           0.7770    -4.5750    58.0960 hc         1 GF3       0.050700
     21 H10          2.1280    -6.9410    56.6650 h1         1 GF3       0.057450
     22 H9           1.5110    -5.4600    55.9060 h1         1 GF3       0.057450
     23 H15         -0.9920    -6.3060    59.1600 hc         1 GF3       0.050700
     24 H14         -0.3680    -7.7870    59.8730 hc         1 GF3       0.050700
     25 H11         -0.7010    -6.0530    56.6210 hn         1 GF3       0.397000
     26 H3           0.0310    -3.8740    60.3180 ha         1 GF3       0.116000
     27 H1           1.7410    -4.4210    64.2620 ha         1 GF3       0.114000
     28 H2           0.3670    -3.0770    62.6680 ha         1 GF3       0.115000
     29 H12         -1.2820    -8.1790    57.5650 h1         1 GF3       0.057450
@<TRIPOS>BOND
     1     1     2 ar  
     2     1     6 1   
     3     1    11 ar  
     4     2     3 ar  
     5     2     5 1   
     6     3    12 ar  
     7     3    15 1   
     8     4     9 1   
     9     4    10 1   
    10     4    16 1   
    11     4    29 1   
    12     5    14 1   
    13     5    17 1   
    14     5    18 1   
    15     6     7 1   
    16     6     9 1   
    17     6    14 1   
    18     7     8 1   
    19     7    19 1   
    20     7    20 1   
    21     8    10 1   
    22     8    21 1   
    23     8    22 1   
    24     9    23 1   
    25     9    24 1   
    26    10    25 1   
    27    11    13 ar  
    28    11    26 1   
    29    12    13 ar  
    30    12    27 1   
    31    13    28 1   
@<TRIPOS>SUBSTRUCTURE
     1 GF3         1 TEMP              0 ****  ****    0 ROOT
