@<TRIPOS>MOLECULE
GF3
   29    31     1     0     0
SMALL
abcg2


@<TRIPOS>ATOM
      1 C4           1.2190    -5.6530    60.6240 ca         1 GF3      -0.114300
      2 C5           2.0090    -6.3850    61.4930 ca         1 GF3      -0.117300
      3 C6           2.2030    -5.9710    62.8000 ca         1 GF3      -0.088000
      4 C11         -0.2910    -7.6960    57.7150 c6         1 GF3       0.153800
      5 C7           2.5160    -7.5910    60.7660 c5         1 GF3       0.204900
      6 C8           1.1590    -6.3570    59.2970 c5         1 GF3       0.230300
      7 C9           1.4990    -5.4620    58.1090 c6         1 GF3      -0.112400
      8 C10          1.3540    -6.2060    56.7820 c6         1 GF3       0.153800
      9 C12         -0.2130    -7.0050    59.0750 c6         1 GF3      -0.112400
     10 N1           0.0560    -6.8340    56.5970 n7         1 GF3      -0.845400
     11 C3           0.6030    -4.4840    61.0370 ca         1 GF3      -0.084000
     12 C1           1.5910    -4.7940    63.2200 ca         1 GF3      -0.106000
     13 C2           0.7980    -4.0560    62.3470 ca         1 GF3      -0.110000
     14 O1           2.1670    -7.3670    59.4130 os         1 GF3      -0.456000
     15 H4           2.8190    -6.5420    63.4830 ha         1 GF3       0.118000
     16 H13          0.3820    -8.5590    57.7050 h1         1 GF3       0.057450
     17 H6           2.0560    -8.5100    61.1530 h1         1 GF3       0.054200
     18 H5           3.6000    -7.7130    60.8440 h1         1 GF3       0.054200
     19 H7           2.5110    -5.0640    58.2200 hc         1 GF3       0.050700
     20 H8           0.8170    -4.6050    58.1150 hc         1 GF3       0.050700
     21 H10          2.1240    -6.9800    56.7060 h1         1 GF3       0.057450
     22 H9           1.5300    -5.5170    55.9540 h1         1 GF3       0.057450
     23 H15         -0.9820    -6.2280    59.1360 hc         1 GF3       0.050700
     24 H14         -0.4220    -7.7170    59.8790 hc         1 GF3       0.050700
     25 H11         -0.6480    -6.1100    56.5090 hn         1 GF3       0.397000
     26 H3          -0.0190    -3.9100    60.3610 ha         1 GF3       0.116000
     27 H1           1.7340    -4.4480    64.2360 ha         1 GF3       0.114000
     28 H2           0.3300    -3.1420    62.6890 ha         1 GF3       0.115000
     29 H12         -1.2970    -8.0880    57.5560 h1         1 GF3       0.057450
@<TRIPOS>BOND
     1     1     2 ar  
     2     1     6 1   
     3     1    11 ar  
     4     2     3 ar  
     5     2     5 1   
     6     3    12 ar  
     7     3    15 1   
     8     4     9 1   
     9     4    10 1   
    10     4    16 1   
    11     4    29 1   
    12     5    14 1   
    13     5    17 1   
    14     5    18 1   
    15     6     7 1   
    16     6     9 1   
    17     6    14 1   
    18     7     8 1   
    19     7    19 1   
    20     7    20 1   
    21     8    10 1   
    22     8    21 1   
    23     8    22 1   
    24     9    23 1   
    25     9    24 1   
    26    10    25 1   
    27    11    13 ar  
    28    11    26 1   
    29    12    13 ar  
    30    12    27 1   
    31    13    28 1   
@<TRIPOS>SUBSTRUCTURE
     1 GF3         1 TEMP              0 ****  ****    0 ROOT
