@<TRIPOS>MOLECULE
GF4
   24    25     1     0     0
SMALL
No Charge or Current Charge


@<TRIPOS>ATOM
      1 O11          0.4040    -1.9830    -0.4200 o          1 GF4      -0.453000
      2 C3           0.6030    -0.7820    -0.2910 c          1 GF4       0.573200
      3 C4           1.8800    -0.0830    -0.2410 cc         1 GF4      -0.231400
      4 C12          3.1650    -0.8640    -0.3840 c3         1 GF4      -0.002200
      5 C13          3.6440    -1.4600     0.9520 c3         1 GF4      -0.090100
      6 C5           1.7120     1.2700    -0.0830 cd         1 GF4       0.090800
      7 C14          2.7490     2.3590    -0.0440 c3         1 GF4      -0.053900
      8 N1           0.3380     1.5090    -0.0170 na         1 GF4      -0.525200
      9 N2          -0.3500     0.2220    -0.1420 n          1 GF4      -0.268700
     10 C6          -1.7300     0.0400    -0.0070 cc         1 GF4       0.528400
     11 N10         -2.6220     1.0300     0.2770 na         1 GF4      -0.246700
     12 N9          -3.8820     0.5280     0.3430 nc         1 GF4      -0.200800
     13 N8          -3.7350    -0.7470     0.1000 nd         1 GF4      -0.031000
     14 N7          -2.4170    -1.0770    -0.1170 nd         1 GF4      -0.372000
     15 H12          3.0390    -1.6740    -1.1130 hc         1 GF4       0.053200
     16 H12A         3.9540    -0.2150    -0.7850 hc         1 GF4       0.053200
     17 H13          2.8970    -2.1530     1.3580 hc         1 GF4       0.040700
     18 H13A         4.5830    -2.0100     0.8120 hc         1 GF4       0.040700
     19 H13B         3.8170    -0.6660     1.6890 hc         1 GF4       0.040700
     20 H14          3.1690     2.5320    -1.0420 hc         1 GF4       0.063367
     21 H14A         2.3250     3.3040     0.3130 hc         1 GF4       0.063367
     22 H14B         3.5730     2.0890     0.6260 hc         1 GF4       0.063367
     23 HN10        -2.4170     2.0060     0.4400 hn         1 GF4       0.391000
     24 H10         -0.1770     2.3770    -0.1880 hn         1 GF4       0.473000
@<TRIPOS>BOND
     1     1     2 2   
     2     2     3 1   
     3     2     9 1   
     4     3     4 1   
     5     3     6 2   
     6     4     5 1   
     7     4    15 1   
     8     4    16 1   
     9     5    17 1   
    10     5    18 1   
    11     5    19 1   
    12     6     7 1   
    13     6     8 1   
    14     7    20 1   
    15     7    21 1   
    16     7    22 1   
    17     8     9 1   
    18     8    24 1   
    19     9    10 1   
    20    10    11 1   
    21    10    14 2   
    22    11    12 1   
    23    11    23 1   
    24    12    13 2   
    25    13    14 1   
@<TRIPOS>SUBSTRUCTURE
     1 GF4         1 TEMP              0 ****  ****    0 ROOT
