@<TRIPOS>MOLECULE
GF4
   24    25     1     0     0
SMALL
abcg2


@<TRIPOS>ATOM
      1 O11          0.3780    -1.9850    -0.4810 o          1 GF4      -0.453000
      2 C3           0.6460    -0.8020    -0.4280 c          1 GF4       0.573200
      3 C4           1.9140    -0.1160    -0.3130 cc         1 GF4      -0.231400
      4 C12          3.2220    -0.8290    -0.2510 c3         1 GF4      -0.002200
      5 C13          3.4800    -1.4710     1.1110 c3         1 GF4      -0.090100
      6 C5           1.6540     1.2090    -0.2210 cd         1 GF4       0.090800
      7 C14          2.5780     2.3630    -0.1440 c3         1 GF4      -0.053900
      8 N1           0.2920     1.4480    -0.2000 na         1 GF4      -0.525200
      9 N2          -0.3120     0.2260    -0.4390 n          1 GF4      -0.268700
     10 C6          -1.6300     0.0820    -0.1090 cc         1 GF4       0.528400
     11 N10         -2.3520     0.9990     0.5380 na         1 GF4      -0.246700
     12 N9          -3.5910     0.5350     0.6620 nc         1 GF4      -0.200800
     13 N8          -3.6030    -0.6110     0.1170 nd         1 GF4      -0.031000
     14 N7          -2.4080    -0.9340    -0.3870 nd         1 GF4      -0.372000
     15 H12          3.2480    -1.5970    -1.0280 hc         1 GF4       0.053200
     16 H12A         4.0300    -0.1330    -0.4850 hc         1 GF4       0.053200
     17 H13          2.7080    -2.2000     1.3560 hc         1 GF4       0.040700
     18 H13A         4.4410    -1.9870     1.1180 hc         1 GF4       0.040700
     19 H13B         3.4960    -0.7200     1.9010 hc         1 GF4       0.040700
     20 H14          2.3710     3.0840    -0.9360 hc         1 GF4       0.063367
     21 H14A         2.4700     2.8820     0.8090 hc         1 GF4       0.063367
     22 H14B         3.6110     2.0380    -0.2420 hc         1 GF4       0.063367
     23 HN10        -2.0870     1.8980     0.9160 hn         1 GF4       0.391000
     24 H10         -0.0350     2.1750    -0.8310 hn         1 GF4       0.473000
@<TRIPOS>BOND
     1     1     2 2   
     2     2     3 1   
     3     2     9 1   
     4     3     4 1   
     5     3     6 2   
     6     4     5 1   
     7     4    15 1   
     8     4    16 1   
     9     5    17 1   
    10     5    18 1   
    11     5    19 1   
    12     6     7 1   
    13     6     8 1   
    14     7    20 1   
    15     7    21 1   
    16     7    22 1   
    17     8     9 1   
    18     8    24 1   
    19     9    10 1   
    20    10    11 1   
    21    10    14 2   
    22    11    12 1   
    23    11    23 1   
    24    12    13 2   
    25    13    14 1   
@<TRIPOS>SUBSTRUCTURE
     1 GF4         1 TEMP              0 ****  ****    0 ROOT
