@<TRIPOS>MOLECULE
GF5
   44    43     1     0     0
SMALL
abcg2


@<TRIPOS>ATOM
      1 C01         -5.2690     2.4570     0.3100 c3         1 GF5       0.020500
      2 C02         -4.4350     1.2900    -0.2480 c3         1 GF5      -0.092400
      3 C03         -3.1800     1.0170     0.5690 c3         1 GF5      -0.153400
      4 C04         -2.3190    -0.0860    -0.0010 c          1 GF5       0.599100
      5 C05         -0.1060    -1.0820    -0.0220 c3         1 GF5       0.042700
      6 C06          1.3130    -0.7150     0.3920 c3         1 GF5       0.054600
      7 C07          3.5290     0.8980     0.1230 c3         1 GF5       0.058600
      8 C08          4.0950     2.2390    -0.3190 c3         1 GF5      -0.322400
      9 C09         -0.4940    -2.3950     0.6730 c          1 GF5       0.579100
     10 C10         -0.4800    -4.8320     0.4260 c3         1 GF5      -0.057000
     11 C11         -0.1400    -5.8620    -0.6720 c          1 GF5       0.714000
     12 C12         -6.4510     2.7050    -0.6520 c          1 GF5       0.727000
     13 N01         -5.7420     2.2750     1.6720 n8         1 GF5      -0.995200
     14 N02         -1.0140    -0.0240     0.3330 ns         1 GF5      -0.505900
     15 O01         -2.7550    -0.9820    -0.7080 o          1 GF5      -0.587100
     16 O02          5.9710     2.4140     1.5630 o          1 GF5      -0.535500
     17 O03          6.6260     1.4750    -0.6610 o          1 GF5      -0.535500
     18 O05         -0.3030    -7.0510    -0.3520 o          1 GF5      -0.732500
     19 O06          0.2600    -5.4150    -1.7650 o          1 GF5      -0.732500
     20 O07         -7.5720     2.2870    -0.3030 o          1 GF5      -0.736000
     21 O08         -6.1720     3.2700    -1.7290 o          1 GF5      -0.736000
     22 S01          1.7960     0.8400    -0.4130 ss         1 GF5      -0.399000
     23 S02          5.8120     2.3560     0.1340 s6         1 GF5       1.355900
     24 H1          -4.6320     3.3500     0.2940 h1         1 GF5       0.034700
     25 H2          -5.0570     0.3910    -0.2840 hc         1 GF5       0.061700
     26 H3          -4.1530     1.5240    -1.2770 hc         1 GF5       0.061700
     27 H4          -2.5890     1.9310     0.6710 hc         1 GF5       0.043200
     28 H5          -3.4450     0.7110     1.5870 hc         1 GF5       0.043200
     29 H7          -0.1270    -1.2260    -1.1060 h1         1 GF5       0.087700
     30 H8           1.3850    -0.6030     1.4760 h1         1 GF5       0.072700
     31 H9           1.9960    -1.5070     0.0830 h1         1 GF5       0.072700
     32 H10          4.0770     0.0710    -0.3280 h1         1 GF5       0.074200
     33 H11          3.5730     0.8010     1.2090 h1         1 GF5       0.074200
     34 H12          4.0480     2.3640    -1.4020 h1         1 GF5       0.120200
     35 H13          3.5830     3.0710     0.1650 h1         1 GF5       0.120200
     36 H15         -1.5280    -4.9600     0.7160 h1         1 GF5       0.036200
     37 H16          0.1170    -5.0510     1.3160 h1         1 GF5       0.036200
     38 H17         -6.4420     1.5440     1.6810 hn         1 GF5       0.375500
     39 H18         -4.9890     1.9680     2.2750 hn         1 GF5       0.375500
     40 H20         -0.7150     0.6660     1.0040 hn         1 GF5       0.311500
     41 H22          0.0850    -3.4260    -0.9930 hn         1 GF5       0.342500
     42 F1           6.0960     3.8350    -0.4090 f          1 GF5      -0.272900
     43 N03         -0.2390    -3.4900    -0.0380 ns         1 GF5      -0.453900
     44 O04         -0.9500    -2.3990     1.8080 o          1 GF5      -0.648100
@<TRIPOS>BOND
     1     1     2 1   
     2     1    12 1   
     3     1    13 1   
     4     1    24 1   
     5     2     3 1   
     6     2    25 1   
     7     2    26 1   
     8     3     4 1   
     9     3    27 1   
    10     3    28 1   
    11     4    14 1   
    12     4    15 2   
    13     5     6 1   
    14     5     9 1   
    15     5    14 1   
    16     5    29 1   
    17     6    22 1   
    18     6    30 1   
    19     6    31 1   
    20     7     8 1   
    21     7    22 1   
    22     7    32 1   
    23     7    33 1   
    24     8    23 1   
    25     8    34 1   
    26     8    35 1   
    27     9    43 1   
    28     9    44 2   
    29    10    11 1   
    30    10    36 1   
    31    10    37 1   
    32    10    43 1   
    33    11    18 1   
    34    11    19 1   
    35    12    20 1   
    36    12    21 1   
    37    13    38 1   
    38    13    39 1   
    39    14    40 1   
    40    16    23 2   
    41    17    23 2   
    42    23    42 1   
    43    41    43 1   
@<TRIPOS>SUBSTRUCTURE
     1 GF5         1 TEMP              0 ****  ****    0 ROOT
