@<TRIPOS>MOLECULE
GF5
   44    43     1     0     0
SMALL
No Charge or Current Charge


@<TRIPOS>ATOM
      1 C01         -4.3650     2.9600     0.8720 c3         1 GF5       0.020500
      2 C02         -3.4180     1.9850     0.1220 c3         1 GF5      -0.092400
      3 C03         -3.6960     0.4800     0.3880 c3         1 GF5      -0.153400
      4 C04         -2.6390    -0.4100    -0.2780 c          1 GF5       0.599100
      5 C05         -0.6060    -1.8610     0.1960 c3         1 GF5       0.042700
      6 C06          0.7340    -1.0880     0.2840 c3         1 GF5       0.054600
      7 C07          2.4490     1.0440    -0.4570 c3         1 GF5       0.058600
      8 C08          2.7020     2.3020    -1.3090 c3         1 GF5      -0.322400
      9 C09         -0.5520    -3.1360     1.0850 c          1 GF5       0.579100
     10 C10          0.4390    -5.4670     1.2620 c3         1 GF5      -0.057000
     11 C11          1.2310    -6.4690     0.3750 c          1 GF5       0.714000
     12 C12         -3.8210     4.4510     0.7890 c          1 GF5       0.727000
     13 N01         -5.7900     2.7390     0.4330 n8         1 GF5      -0.995200
     14 N02         -1.7480    -0.9980     0.5920 ns         1 GF5      -0.505900
     15 O01         -2.6180    -0.6170    -1.4830 o          1 GF5      -0.587100
     16 O02          4.3680     3.5890     0.3520 o          1 GF5      -0.535500
     17 O03          5.3710     2.1330    -1.5010 o          1 GF5      -0.535500
     18 O05          1.0710    -7.6640     0.5780 o          1 GF5      -0.732500
     19 O06          1.9470    -6.0270    -0.5140 o          1 GF5      -0.732500
     20 O07         -3.8170     5.0140    -0.3000 o          1 GF5      -0.736000
     21 O08         -3.4860     5.0070     1.8280 o          1 GF5      -0.736000
     22 S01          0.7730     0.3790    -0.8500 ss         1 GF5      -0.399000
     23 S02          4.3190     3.0360    -1.0100 s6         1 GF5       1.355900
     24 H1          -4.3240     2.6840     1.9350 h1         1 GF5       0.034700
     25 H2          -3.4620     2.1830    -0.9570 hc         1 GF5       0.061700
     26 H3          -2.3870     2.2030     0.4310 hc         1 GF5       0.061700
     27 H4          -3.6940     0.3150     1.4720 hc         1 GF5       0.043200
     28 H5          -4.6780     0.2200    -0.0250 hc         1 GF5       0.043200
     29 H7          -0.7490    -2.1990    -0.8380 h1         1 GF5       0.087700
     30 H8           0.8920    -0.7470     1.3160 h1         1 GF5       0.072700
     31 H9           1.5640    -1.7560     0.0180 h1         1 GF5       0.072700
     32 H10          3.2020     0.2730    -0.6760 h1         1 GF5       0.074200
     33 H11          2.4970     1.2880     0.6140 h1         1 GF5       0.074200
     34 H12          2.6720     2.0650    -2.3770 h1         1 GF5       0.120200
     35 H13          1.9690     3.0840    -1.0820 h1         1 GF5       0.120200
     36 H15         -0.5340    -5.9080     1.5110 h1         1 GF5       0.036200
     37 H16          1.0030    -5.3040     2.1890 h1         1 GF5       0.036200
     38 H17         -5.8870     3.0560    -0.5390 hn         1 GF5       0.375500
     39 H18         -5.9720     1.7310     0.3860 hn         1 GF5       0.375500
     40 H20         -1.8840    -0.8090     1.5790 hn         1 GF5       0.311500
     41 H22          0.6870    -4.0120    -0.3020 hn         1 GF5       0.342500
     42 F1           4.2260     4.3000    -2.0530 f          1 GF5      -0.272900
     43 N03          0.2240    -4.1640     0.5890 ns         1 GF5      -0.453900
     44 O04         -1.1500    -3.2410     2.1510 o          1 GF5      -0.648100
@<TRIPOS>BOND
     1     1     2 1   
     2     1    12 1   
     3     1    13 1   
     4     1    24 1   
     5     2     3 1   
     6     2    25 1   
     7     2    26 1   
     8     3     4 1   
     9     3    27 1   
    10     3    28 1   
    11     4    14 1   
    12     4    15 2   
    13     5     6 1   
    14     5     9 1   
    15     5    14 1   
    16     5    29 1   
    17     6    22 1   
    18     6    30 1   
    19     6    31 1   
    20     7     8 1   
    21     7    22 1   
    22     7    32 1   
    23     7    33 1   
    24     8    23 1   
    25     8    34 1   
    26     8    35 1   
    27     9    43 1   
    28     9    44 2   
    29    10    11 1   
    30    10    36 1   
    31    10    37 1   
    32    10    43 1   
    33    11    18 1   
    34    11    19 1   
    35    12    20 1   
    36    12    21 1   
    37    13    38 1   
    38    13    39 1   
    39    14    40 1   
    40    16    23 2   
    41    17    23 2   
    42    23    42 1   
    43    41    43 1   
@<TRIPOS>SUBSTRUCTURE
     1 GF5         1 TEMP              0 ****  ****    0 ROOT
