@<TRIPOS>MOLECULE
GF6
   21    21     1     0     0
SMALL
abcg2


@<TRIPOS>ATOM
      1 C4           1.1190     7.3590   -57.3900 ca         1 GF6      -0.090000
      2 C5           0.2620     6.6430   -56.5650 ca         1 GF6      -0.082000
      3 C6          -0.6130     5.7310   -57.1360 ca         1 GF6      -0.172300
      4 C7          -1.5880     4.9660   -56.2940 c3         1 GF6       0.356300
      5 C8          -0.6420     5.5350   -58.5120 ca         1 GF6      -0.104000
      6 N1           0.1240     3.7550   -60.8130 nt         1 GF6      -0.596000
      7 C3           1.1220     7.1490   -58.7570 ca         1 GF6      -0.126000
      8 C1           0.1460     4.9340   -61.4800 c          1 GF6       0.653100
      9 O1           0.0690     5.0120   -62.6960 o          1 GF6      -0.622100
     10 C2           0.2440     6.2290   -59.3310 ca         1 GF6      -0.024000
     11 F1          -1.5650     3.6560   -56.5750 f          1 GF6      -0.112000
     12 F2          -2.8490     5.3780   -56.4980 f          1 GF6      -0.112000
     13 F3          -1.3470     5.0910   -54.9870 f          1 GF6      -0.112000
     14 H5           1.8040     8.0760   -56.9580 ha         1 GF6       0.125000
     15 H6           0.2870     6.8090   -55.4970 ha         1 GF6       0.136000
     16 H7          -1.3590     4.8560   -58.9530 ha         1 GF6       0.145000
     17 H2           0.1940     2.9250   -61.3790 hn         1 GF6       0.314000
     18 H1           0.5080     3.6710   -59.8850 hn         1 GF6       0.314000
     19 H3           0.4530     6.9040   -61.2600 hn         1 GF6       0.170000
     20 H4           1.8090     7.6980   -59.3890 ha         1 GF6       0.123000
     21 N2           0.2390     6.0790   -60.7210 ns         1 GF6      -0.183000
@<TRIPOS>BOND
     1     1     2 ar  
     2     1     7 ar  
     3     1    14 1   
     4     2     3 ar  
     5     2    15 1   
     6     3     4 1   
     7     3     5 ar  
     8     4    11 1   
     9     4    12 1   
    10     4    13 1   
    11     5    10 ar  
    12     5    16 1   
    13     6     8 1   
    14     6    17 1   
    15     6    18 1   
    16     7    10 ar  
    17     7    20 1   
    18     8     9 2   
    19     8    21 1   
    20    10    21 1   
    21    19    21 1   
@<TRIPOS>SUBSTRUCTURE
     1 GF6         1 TEMP              0 ****  ****    0 ROOT
