@<TRIPOS>MOLECULE
GF6
   21    21     1     0     0
SMALL
No Charge or Current Charge


@<TRIPOS>ATOM
      1 C4           1.1010     7.4280   -57.3810 ca         1 GF6      -0.090000
      2 C5           0.2290     6.6900   -56.5640 ca         1 GF6      -0.082000
      3 C6          -0.6260     5.7170   -57.1260 ca         1 GF6      -0.172300
      4 C7          -1.6050     4.9310   -56.2450 c3         1 GF6       0.356300
      5 C8          -0.5910     5.5020   -58.5230 ca         1 GF6      -0.104000
      6 N1           0.1890     3.7290   -60.8790 nt         1 GF6      -0.596000
      7 C3           1.1320     7.2000   -58.7660 ca         1 GF6      -0.126000
      8 C1           0.2100     4.9090   -61.5310 c          1 GF6       0.653100
      9 O1           0.1410     4.9490   -62.7470 o          1 GF6      -0.622100
     10 C2           0.3020     6.2250   -59.3430 ca         1 GF6      -0.024000
     11 F1          -1.8010     3.6710   -56.6970 f          1 GF6      -0.112000
     12 F2          -2.8170     5.5280   -56.2030 f          1 GF6      -0.112000
     13 F3          -1.1760     4.8180   -54.9660 f          1 GF6      -0.112000
     14 H5           1.7500     8.1810   -56.9390 ha         1 GF6       0.125000
     15 H6           0.2140     6.8880   -55.4930 ha         1 GF6       0.136000
     16 H7          -1.2840     4.7920   -58.9680 ha         1 GF6       0.145000
     17 H2           0.1080     2.8750   -61.4090 hn         1 GF6       0.314000
     18 H1           0.3030     3.7080   -59.8780 hn         1 GF6       0.314000
     19 H3           0.4750     6.8950   -61.2780 hn         1 GF6       0.170000
     20 H4           1.8110     7.7790   -59.3890 ha         1 GF6       0.123000
     21 N2           0.3510     6.0420   -60.7500 ns         1 GF6      -0.183000
@<TRIPOS>BOND
     1     1     2 ar  
     2     1     7 ar  
     3     1    14 1   
     4     2     3 ar  
     5     2    15 1   
     6     3     4 1   
     7     3     5 ar  
     8     4    11 1   
     9     4    12 1   
    10     4    13 1   
    11     5    10 ar  
    12     5    16 1   
    13     6     8 1   
    14     6    17 1   
    15     6    18 1   
    16     7    10 ar  
    17     7    20 1   
    18     8     9 2   
    19     8    21 1   
    20    10    21 1   
    21    19    21 1   
@<TRIPOS>SUBSTRUCTURE
     1 GF6         1 TEMP              0 ****  ****    0 ROOT
