@<TRIPOS>MOLECULE
GF7
   30    31     1     0     0
SMALL
abcg2


@<TRIPOS>ATOM
      1 O18         -5.4800    -0.5890    -0.1750 o          1 GF7      -0.552100
      2 C16         -4.7390     0.3640    -0.0350 c          1 GF7       0.593700
      3 C17         -5.2850     1.7560     0.1370 c3         1 GF7      -0.195100
      4 C9          -3.2670     0.1850    -0.0350 ca         1 GF7      -0.235600
      5 C8          -2.7250    -1.0900    -0.2160 ca         1 GF7      -0.041000
      6 C7          -1.3620    -1.3040    -0.2220 ca         1 GF7      -0.174500
      7 C10         -2.3840     1.2490     0.1330 ca         1 GF7      -0.041000
      8 C11         -1.0160     1.0500     0.1290 ca         1 GF7      -0.174500
      9 C6          -0.4790    -0.2300    -0.0430 ca         1 GF7       0.042000
     10 N1           0.9040    -0.3850    -0.0620 n          1 GF7      -0.237400
     11 C2           1.5980    -1.5220     0.2720 c          1 GF7       0.560000
     12 O12          1.1070    -2.5910     0.5700 o          1 GF7      -0.567000
     13 C5           1.7950     0.7590    -0.2650 c5         1 GF7       0.110000
     14 C4           3.1440     0.1080    -0.5440 c5         1 GF7      -0.209700
     15 C3           3.0690    -1.1890     0.2450 c5         1 GF7      -0.133400
     16 C13          4.3540     1.0060    -0.2530 c          1 GF7       0.729000
     17 O14          4.1710     2.2330    -0.3690 o          1 GF7      -0.722000
     18 O15          5.4170     0.4270     0.0400 o          1 GF7      -0.722000
     19 H17         -6.3730     1.7400     0.1300 hc         1 GF7       0.054700
     20 H17A        -4.9460     2.1960     1.0760 hc         1 GF7       0.054700
     21 H17B        -4.9390     2.4090    -0.6650 hc         1 GF7       0.054700
     22 H8          -3.3830    -1.9360    -0.3650 ha         1 GF7       0.112000
     23 H7          -0.9930    -2.3030    -0.3840 ha         1 GF7       0.135500
     24 H10         -2.7510     2.2570     0.2770 ha         1 GF7       0.112000
     25 H11         -0.3690     1.9040     0.2710 ha         1 GF7       0.135500
     26 H5           1.4380     1.3700    -1.0930 h1         1 GF7       0.054700
     27 H5A          1.8250     1.3850     0.6310 h1         1 GF7       0.054700
     28 H4           3.1780    -0.1450    -1.6110 hc         1 GF7       0.044700
     29 H3           3.4030    -1.0520     1.2800 hc         1 GF7       0.078700
     30 H3A          3.6440    -2.0140    -0.1720 hc         1 GF7       0.078700
@<TRIPOS>BOND
     1     1     2 2   
     2     2     3 1   
     3     2     4 1   
     4     3    19 1   
     5     3    20 1   
     6     3    21 1   
     7     4     5 ar  
     8     4     7 ar  
     9     5     6 ar  
    10     5    22 1   
    11     6     9 ar  
    12     6    23 1   
    13     7     8 ar  
    14     7    24 1   
    15     8     9 ar  
    16     8    25 1   
    17     9    10 1   
    18    10    11 1   
    19    10    13 1   
    20    11    12 2   
    21    11    15 1   
    22    13    14 1   
    23    13    26 1   
    24    13    27 1   
    25    14    15 1   
    26    14    16 1   
    27    14    28 1   
    28    15    29 1   
    29    15    30 1   
    30    16    17 1   
    31    16    18 1   
@<TRIPOS>SUBSTRUCTURE
     1 GF7         1 TEMP              0 ****  ****    0 ROOT
