@<TRIPOS>MOLECULE
GF7
   30    31     1     0     0
SMALL
No Charge or Current Charge


@<TRIPOS>ATOM
      1 O18         -5.5540    -0.5930    -0.3250 o          1 GF7      -0.552100
      2 C16         -4.8170     0.3650    -0.1200 c          1 GF7       0.593700
      3 C17         -5.4290     1.7470     0.1220 c3         1 GF7      -0.195100
      4 C9          -3.3100     0.1960    -0.1040 ca         1 GF7      -0.235600
      5 C8          -2.7430    -1.0770    -0.3240 ca         1 GF7      -0.041000
      6 C7          -1.3490    -1.2560    -0.3130 ca         1 GF7      -0.174500
      7 C10         -2.4400     1.2800     0.1480 ca         1 GF7      -0.041000
      8 C11         -1.0480     1.0910     0.1540 ca         1 GF7      -0.174500
      9 C6          -0.4740    -0.1640    -0.1350 ca         1 GF7       0.042000
     10 N1           0.9510    -0.3280     0.0410 n          1 GF7      -0.237400
     11 C2           1.6080    -1.4790     0.5260 c          1 GF7       0.560000
     12 O12          1.1140    -2.5840     0.7110 o          1 GF7      -0.567000
     13 C5           1.8900     0.7420    -0.3710 c5         1 GF7       0.110000
     14 C4           3.2100    -0.0590    -0.5860 c5         1 GF7      -0.209700
     15 C3           3.0880    -1.1010     0.5640 c5         1 GF7      -0.133400
     16 C13          4.4390     0.8710    -0.4340 c          1 GF7       0.729000
     17 O14          4.5990     1.4990     0.6010 o          1 GF7      -0.722000
     18 O15          5.2270     0.9440    -1.3640 o          1 GF7      -0.722000
     19 H17         -6.5240     1.7390     0.0730 hc         1 GF7       0.054700
     20 H17A        -5.0760     2.1310     1.0850 hc         1 GF7       0.054700
     21 H17B        -5.0010     2.4590    -0.5940 hc         1 GF7       0.054700
     22 H8          -3.3800    -1.9410    -0.5010 ha         1 GF7       0.112000
     23 H7          -0.9630    -2.2540    -0.4910 ha         1 GF7       0.135500
     24 H10         -2.8250     2.2750     0.3540 ha         1 GF7       0.112000
     25 H11         -0.4130     1.9420     0.3870 ha         1 GF7       0.135500
     26 H5           1.5640     1.2500    -1.2890 h1         1 GF7       0.054700
     27 H5A          1.9830     1.4910     0.4270 h1         1 GF7       0.054700
     28 H4           3.2220    -0.5470    -1.5670 hc         1 GF7       0.044700
     29 H3           3.2720    -0.6100     1.5260 hc         1 GF7       0.078700
     30 H3A          3.7350    -1.9820     0.4820 hc         1 GF7       0.078700
@<TRIPOS>BOND
     1     1     2 2   
     2     2     3 1   
     3     2     4 1   
     4     3    19 1   
     5     3    20 1   
     6     3    21 1   
     7     4     5 ar  
     8     4     7 ar  
     9     5     6 ar  
    10     5    22 1   
    11     6     9 ar  
    12     6    23 1   
    13     7     8 ar  
    14     7    24 1   
    15     8     9 ar  
    16     8    25 1   
    17     9    10 1   
    18    10    11 1   
    19    10    13 1   
    20    11    12 2   
    21    11    15 1   
    22    13    14 1   
    23    13    26 1   
    24    13    27 1   
    25    14    15 1   
    26    14    16 1   
    27    14    28 1   
    28    15    29 1   
    29    15    30 1   
    30    16    17 1   
    31    16    18 1   
@<TRIPOS>SUBSTRUCTURE
     1 GF7         1 TEMP              0 ****  ****    0 ROOT
