@<TRIPOS>MOLECULE
GF8
   26    26     1     0     0
SMALL
abcg2


@<TRIPOS>ATOM
      1 C13          2.7920    -0.4510    -0.1840 ca         1 GF8       0.120000
      2 C15          1.5350    -0.6530    -0.7300 ca         1 GF8      -0.068000
      3 C02         -5.3360     0.1500    -0.3930 c3         1 GF8       0.055600
      4 C03         -4.0120    -0.0110     0.3370 c3         1 GF8       0.111000
      5 C05         -1.6860    -0.2260    -0.4210 c          1 GF8       0.600100
      6 C07         -0.6970     0.1900    -1.5010 c3         1 GF8      -0.114100
      7 C08          0.6730     0.4170    -0.9350 ca         1 GF8      -0.065300
      8 C09          1.0940     1.6940    -0.5790 ca         1 GF8      -0.096000
      9 C10          2.3490     1.9020    -0.0320 ca         1 GF8      -0.097000
     10 C11          3.2040     0.8290     0.1680 ca         1 GF8       0.122000
     11 N04         -2.9190     0.2840    -0.5630 ns         1 GF8      -0.513900
     12 O06         -1.3730    -0.9930     0.4750 o          1 GF8      -0.584100
     13 S01         -6.6820    -0.1720     0.7940 sh         1 GF8      -0.431800
     14 CL1          4.7660     1.0980     0.8450 cl         1 GF8      -0.172000
     15 CL2          3.8360    -1.8030     0.0510 cl         1 GF8      -0.171000
     16 H1           1.2320    -1.6550    -1.0040 ha         1 GF8       0.138000
     17 H2          -5.4370     1.1610    -0.7880 h1         1 GF8       0.061200
     18 H3          -5.3980    -0.5560    -1.2200 h1         1 GF8       0.061200
     19 H4          -3.9810     0.6470     1.2100 h1         1 GF8       0.070700
     20 H5          -3.9090    -1.0350     0.6950 h1         1 GF8       0.070700
     21 H6          -0.6710    -0.6190    -2.2360 hc         1 GF8       0.066200
     22 H7          -1.0440     1.0790    -2.0290 hc         1 GF8       0.066200
     23 H8           0.4390     2.5430    -0.7310 ha         1 GF8       0.116000
     24 H9           2.6690     2.8990     0.2370 ha         1 GF8       0.132000
     25 H10         -3.0720     0.9780    -1.2780 hn         1 GF8       0.310500
     26 H11         -7.6930    -0.1100    -0.0780 hs         1 GF8       0.212800
@<TRIPOS>BOND
     1     1     2 ar  
     2     1    10 ar  
     3     1    15 1   
     4     2     7 ar  
     5     2    16 1   
     6     3     4 1   
     7     3    13 1   
     8     3    17 1   
     9     3    18 1   
    10     4    11 1   
    11     4    19 1   
    12     4    20 1   
    13     5     6 1   
    14     5    11 1   
    15     5    12 2   
    16     6     7 1   
    17     6    21 1   
    18     6    22 1   
    19     7     8 ar  
    20     8     9 ar  
    21     8    23 1   
    22     9    10 ar  
    23     9    24 1   
    24    10    14 1   
    25    11    25 1   
    26    13    26 1   
@<TRIPOS>SUBSTRUCTURE
     1 GF8         1 TEMP              0 ****  ****    0 ROOT
