@<TRIPOS>MOLECULE
GF8
   26    26     1     0     0
SMALL
No Charge or Current Charge


@<TRIPOS>ATOM
      1 C13          2.6360    -0.5620    -0.1350 ca         1 GF8       0.120000
      2 C15          1.4240    -0.7300    -0.8280 ca         1 GF8      -0.068000
      3 C02         -5.0450    -0.1420    -0.2170 c3         1 GF8       0.055600
      4 C03         -3.8790     0.6380     0.4240 c3         1 GF8       0.111000
      5 C05         -1.8650    -0.2200    -0.8290 c          1 GF8       0.600100
      6 C07         -0.7460     0.1810    -1.7950 c3         1 GF8      -0.114100
      7 C08          0.5700     0.3690    -1.0490 ca         1 GF8      -0.065300
      8 C09          0.9410     1.6400    -0.5680 ca         1 GF8      -0.096000
      9 C10          2.1520     1.8110     0.1250 ca         1 GF8      -0.097000
     10 C11          3.0020     0.7130     0.3420 ca         1 GF8       0.122000
     11 N04         -2.7340     0.7920    -0.4830 ns         1 GF8      -0.513900
     12 O06         -1.9740    -1.3530    -0.3820 o          1 GF8      -0.584100
     13 S01         -6.5280    -0.2960     0.8870 sh         1 GF8      -0.431800
     14 Cl1          4.5150     0.9610     1.2160 cl         1 GF8      -0.172000
     15 Cl2          3.6770    -1.9640     0.1210 cl         1 GF8      -0.171000
     16 H1           1.1480    -1.7170    -1.1900 ha         1 GF8       0.138000
     17 H2          -5.3550     0.3660    -1.1390 h1         1 GF8       0.061200
     18 H3          -4.7080    -1.1520    -0.4830 h1         1 GF8       0.061200
     19 H4          -4.2310     1.6360     0.7170 h1         1 GF8       0.070700
     20 H5          -3.5490     0.1180     1.3330 h1         1 GF8       0.070700
     21 H6          -0.6330    -0.6100    -2.5450 hc         1 GF8       0.066200
     22 H7          -1.0110     1.1180    -2.3000 hc         1 GF8       0.066200
     23 H8           0.2910     2.4980    -0.7290 ha         1 GF8       0.116000
     24 H9           2.4330     2.7940     0.4940 ha         1 GF8       0.132000
     25 H10         -2.5610     1.7040    -0.8920 hn         1 GF8       0.310500
     26 H11         -7.2910    -1.0040     0.0150 hs         1 GF8       0.212800
@<TRIPOS>BOND
     1     1     2 ar  
     2     1    10 ar  
     3     1    15 1   
     4     2     7 ar  
     5     2    16 1   
     6     3     4 1   
     7     3    13 1   
     8     3    17 1   
     9     3    18 1   
    10     4    11 1   
    11     4    19 1   
    12     4    20 1   
    13     5     6 1   
    14     5    11 1   
    15     5    12 2   
    16     6     7 1   
    17     6    21 1   
    18     6    22 1   
    19     7     8 ar  
    20     8     9 ar  
    21     8    23 1   
    22     9    10 ar  
    23     9    24 1   
    24    10    14 1   
    25    11    25 1   
    26    13    26 1   
@<TRIPOS>SUBSTRUCTURE
     1 GF8         1 TEMP              0 ****  ****    0 ROOT
