@<TRIPOS>MOLECULE
GF9
   38    40     1     0     0
SMALL
abcg2


@<TRIPOS>ATOM
      1 C10        -35.4780   -16.6090    32.4550 ca         1 GF9       0.317000
      2 C13        -34.8320   -15.7190    29.8810 ca         1 GF9       0.071000
      3 C15        -35.5560   -16.8920    30.0460 ca         1 GF9      -0.059500
      4 C21        -36.0810   -22.4810    39.5940 c3         1 GF9      -0.072400
      5 C22        -35.7050   -23.7180    40.3960 c3         1 GF9      -0.091100
      6 C2         -37.3630   -18.0900    39.0120 c          1 GF9       0.558800
      7 C4         -35.5350   -18.6790    37.5030 cc         1 GF9       0.628500
      8 C6         -35.8330   -17.1570    36.1000 cd         1 GF9       0.521300
      9 C8         -35.6290   -16.3110    34.8920 c3         1 GF9       0.189500
     10 C11        -34.7690   -15.4180    32.2620 ca         1 GF9      -0.175500
     11 C12        -34.4440   -14.9820    30.9850 ca         1 GF9      -0.059500
     12 C16        -35.8740   -17.3280    31.3170 ca         1 GF9      -0.175500
     13 C18        -35.7170   -20.0340    39.2990 c2         1 GF9       0.468300
     14 C19        -36.8710   -19.2440    39.8390 c6         1 GF9      -0.278700
     15 N3         -36.5900   -17.8950    37.8760 n          1 GF9      -0.096500
     16 N5         -35.0430   -18.2310    36.3850 nd         1 GF9      -0.625000
     17 N7         -36.7790   -16.9210    36.9670 nc         1 GF9      -0.467800
     18 N9         -35.7700   -17.1130    33.7020 nu         1 GF9      -0.935200
     19 N17        -35.0950   -19.7560    38.2150 ne         1 GF9      -0.595700
     20 CL1        -34.4220   -15.1750    28.2820 cl         1 GF9      -0.213000
     21 H1         -35.8730   -17.4680    29.1880 ha         1 GF9       0.125000
     22 H2         -34.2420   -21.4050    39.9490 hc         1 GF9       0.070700
     23 H3         -35.5070   -21.0840    41.1390 hc         1 GF9       0.070700
     24 H4         -35.8660   -22.6410    38.5350 hc         1 GF9       0.047700
     25 H5         -37.1570   -22.3050    39.6720 hc         1 GF9       0.047700
     26 H6         -36.2420   -24.5950    40.0340 hc         1 GF9       0.038700
     27 H7         -34.6370   -23.9270    40.3220 hc         1 GF9       0.038700
     28 H8         -35.9470   -23.5920    41.4520 hc         1 GF9       0.038700
     29 H9         -34.6160   -15.9040    34.9380 h1         1 GF9       0.063700
     30 H10        -36.3200   -15.4600    34.9270 h1         1 GF9       0.063700
     31 H11        -34.4590   -14.8090    33.1000 ha         1 GF9       0.116000
     32 H12        -33.8910   -14.0600    30.8640 ha         1 GF9       0.125000
     33 H13        -36.4340   -18.2480    31.4350 ha         1 GF9       0.116000
     34 H14        -37.7110   -19.9160    40.0380 hc         1 GF9       0.110200
     35 H15        -36.5860   -18.8550    40.8240 hc         1 GF9       0.110200
     36 H16        -36.5520   -17.7500    33.7190 hn         1 GF9       0.473000
     37 O1         -38.3020   -17.3960    39.2810 o          1 GF9      -0.433000
     38 C20        -35.3130   -21.2420    40.0760 c3         1 GF9      -0.128700
@<TRIPOS>BOND
     1     1    10 ar  
     2     1    12 ar  
     3     1    18 1   
     4     2     3 ar  
     5     2    11 ar  
     6     2    20 1   
     7     3    12 ar  
     8     3    21 1   
     9     4     5 1   
    10     4    24 1   
    11     4    25 1   
    12     4    38 1   
    13     5    26 1   
    14     5    27 1   
    15     5    28 1   
    16     6    14 1   
    17     6    15 1   
    18     6    37 2   
    19     7    15 1   
    20     7    16 2   
    21     7    19 1   
    22     8     9 1   
    23     8    16 1   
    24     8    17 2   
    25     9    18 1   
    26     9    29 1   
    27     9    30 1   
    28    10    11 ar  
    29    10    31 1   
    30    11    32 1   
    31    12    33 1   
    32    13    14 1   
    33    13    19 2   
    34    13    38 1   
    35    14    34 1   
    36    14    35 1   
    37    15    17 1   
    38    18    36 1   
    39    22    38 1   
    40    23    38 1   
@<TRIPOS>SUBSTRUCTURE
     1 GF9         1 TEMP              0 ****  ****    0 ROOT
