@<TRIPOS>MOLECULE
GF9
   38    40     1     0     0
SMALL
No Charge or Current Charge


@<TRIPOS>ATOM
      1 C10        -35.2120   -16.4720    32.3040 ca         1 GF9       0.317000
      2 C13        -34.8540   -15.4850    29.6900 ca         1 GF9       0.071000
      3 C15        -34.3620   -16.7540    30.0350 ca         1 GF9      -0.059500
      4 C21        -36.6610   -22.4540    40.0310 c3         1 GF9      -0.072400
      5 C22        -36.3640   -23.8430    40.6280 c3         1 GF9      -0.091100
      6 C2         -36.7820   -18.0310    39.3750 c          1 GF9       0.558800
      7 C4         -35.7250   -18.8140    37.3690 cc         1 GF9       0.628500
      8 C6         -36.0450   -17.2060    36.0260 cd         1 GF9       0.521300
      9 C8         -36.0540   -16.3430    34.7580 c3         1 GF9       0.189500
     10 C11        -35.7030   -15.2010    31.9540 ca         1 GF9      -0.175500
     11 C12        -35.5250   -14.7070    30.6480 ca         1 GF9      -0.059500
     12 C16        -34.5420   -17.2450    31.3420 ca         1 GF9      -0.175500
     13 C18        -35.6690   -20.2690    39.1500 c2         1 GF9       0.468300
     14 C19        -36.0630   -19.1610    40.1060 c6         1 GF9      -0.278700
     15 N3         -36.3570   -17.8200    38.0590 n          1 GF9      -0.096500
     16 N5         -35.4740   -18.4770    36.1200 nd         1 GF9      -0.625000
     17 N7         -36.5980   -16.8240    37.1640 nc         1 GF9      -0.467800
     18 N9         -35.3740   -16.9870    33.5900 nu         1 GF9      -0.935200
     19 N17        -35.4310   -20.0510    37.8920 ne         1 GF9      -0.595700
     20 Cl1        -34.6310   -14.8690    28.0570 cl         1 GF9      -0.213000
     21 H1         -33.8430   -17.3560    29.2920 ha         1 GF9       0.125000
     22 H2         -34.7340   -22.2030    39.0770 hc         1 GF9       0.070700
     23 H3         -34.8150   -21.5070    40.6830 hc         1 GF9       0.070700
     24 H4         -37.2220   -22.5800    39.0960 hc         1 GF9       0.047700
     25 H5         -37.3120   -21.9030    40.7210 hc         1 GF9       0.047700
     26 H6         -37.2970   -24.3900    40.8070 hc         1 GF9       0.038700
     27 H7         -35.7450   -24.4360    39.9430 hc         1 GF9       0.038700
     28 H8         -35.8320   -23.7500    41.5830 hc         1 GF9       0.038700
     29 H9         -35.5650   -15.3890    34.9960 h1         1 GF9       0.063700
     30 H10        -37.1000   -16.1240    34.5070 h1         1 GF9       0.063700
     31 H11        -36.2240   -14.5890    32.6840 ha         1 GF9       0.116000
     32 H12        -35.9060   -13.7240    30.3790 ha         1 GF9       0.125000
     33 H13        -34.1590   -18.2270    31.6030 ha         1 GF9       0.116000
     34 H14        -36.6630   -19.5060    40.9570 hc         1 GF9       0.110200
     35 H15        -35.1220   -18.7440    40.4850 hc         1 GF9       0.110200
     36 H16        -34.9850   -17.9190    33.7560 hn         1 GF9       0.473000
     37 O1         -37.7120   -17.4190    39.8810 o          1 GF9      -0.433000
     38 C20        -35.3810   -21.6290    39.7520 c3         1 GF9      -0.128700
@<TRIPOS>BOND
     1     1    10 ar  
     2     1    12 ar  
     3     1    18 1   
     4     2     3 ar  
     5     2    11 ar  
     6     2    20 1   
     7     3    12 ar  
     8     3    21 1   
     9     4     5 1   
    10     4    24 1   
    11     4    25 1   
    12     4    38 1   
    13     5    26 1   
    14     5    27 1   
    15     5    28 1   
    16     6    14 1   
    17     6    15 1   
    18     6    37 2   
    19     7    15 1   
    20     7    16 2   
    21     7    19 1   
    22     8     9 1   
    23     8    16 1   
    24     8    17 2   
    25     9    18 1   
    26     9    29 1   
    27     9    30 1   
    28    10    11 ar  
    29    10    31 1   
    30    11    32 1   
    31    12    33 1   
    32    13    14 1   
    33    13    19 2   
    34    13    38 1   
    35    14    34 1   
    36    14    35 1   
    37    15    17 1   
    38    18    36 1   
    39    22    38 1   
    40    23    38 1   
@<TRIPOS>SUBSTRUCTURE
     1 GF9         1 TEMP              0 ****  ****    0 ROOT
