@<TRIPOS>MOLECULE
GFA
   42    44     1     0     0
SMALL
No Charge or Current Charge


@<TRIPOS>ATOM
      1 O2          -0.4770     0.5070     0.3520 os         1 GFA      -0.316100
      2 Cl1         -6.0140     2.6300    -0.2160 cl         1 GFA      -0.191000
      3 O3           1.9980    -0.6740     0.7730 o          1 GFA      -0.536100
      4 O1          -3.2110    -1.5490     2.0860 o          1 GFA      -0.509100
      5 N1           3.1520     1.0660    -0.2220 ns         1 GFA      -0.152000
      6 C12         -1.9760     2.3120    -0.3220 ca         1 GFA      -0.173000
      7 C8          -2.8500     0.1960     0.5280 ca         1 GFA      -0.173600
      8 C9          -4.1610     0.7090     0.4190 ca         1 GFA      -0.038000
      9 C6          -1.7800    -2.1680     0.2770 ca         1 GFA      -0.149600
     10 C7          -2.6500    -1.2000     1.0520 c          1 GFA       0.609300
     11 C13         -1.7510     1.0080     0.1730 ca         1 GFA       0.152100
     12 C1          -1.2260    -3.2950     0.9260 ca         1 GFA      -0.063000
     13 C10         -4.3760     2.0060    -0.0710 ca         1 GFA       0.088000
     14 C21          4.9990    -0.5520     0.2540 ca         1 GFA      -0.146500
     15 C14          0.7100     1.2210    -0.0640 c3         1 GFA       0.078600
     16 C16          4.5280     0.7030    -0.1920 ca         1 GFA      -0.023000
     17 C4          -0.7200    -2.8910    -1.8070 ca         1 GFA      -0.123000
     18 C15          2.0010     0.4200     0.2160 c          1 GFA       0.605100
     19 C11         -3.2870     2.8060    -0.4470 ca         1 GFA      -0.061000
     20 C20          6.3760    -0.8380     0.2500 ca         1 GFA      -0.085000
     21 C17          5.4610     1.6570    -0.6450 ca         1 GFA      -0.146500
     22 C5          -1.5260    -1.9810    -1.1010 ca         1 GFA      -0.063000
     23 C18          6.8370     1.3710    -0.6480 ca         1 GFA      -0.085000
     24 C3          -0.1650    -4.0000    -1.1500 ca         1 GFA      -0.083000
     25 C19          7.2950     0.1230    -0.1990 ca         1 GFA      -0.133000
     26 C2          -0.4210    -4.2020     0.2160 ca         1 GFA      -0.123000
     27 HN1          2.9810     1.9680    -0.6480 hn         1 GFA       0.147000
     28 H12         -1.1510     2.9600    -0.6040 ha         1 GFA       0.124000
     29 H9          -5.0140     0.0970     0.7050 ha         1 GFA       0.146000
     30 H1          -1.4120    -3.4650     1.9840 ha         1 GFA       0.120500
     31 H21          4.3190    -1.3230     0.6020 ha         1 GFA       0.126000
     32 H14          0.6760     1.4280    -1.1410 h1         1 GFA       0.053200
     33 H14A         0.7940     2.1770     0.4670 h1         1 GFA       0.053200
     34 H4          -0.5280    -2.7370    -2.8670 ha         1 GFA       0.114500
     35 H11         -3.4580     3.8110    -0.8260 ha         1 GFA       0.132000
     36 H20          6.7300    -1.8080     0.5950 ha         1 GFA       0.114500
     37 H17          5.1200     2.6290    -0.9960 ha         1 GFA       0.126000
     38 H5          -1.9540    -1.1350    -1.6350 ha         1 GFA       0.120500
     39 H18          7.5480     2.1170    -0.9990 ha         1 GFA       0.114500
     40 H3           0.4580    -4.7040    -1.6980 ha         1 GFA       0.115000
     41 H19          8.3600    -0.1000    -0.2020 ha         1 GFA       0.116000
     42 H2           0.0050    -5.0630     0.7260 ha         1 GFA       0.114500
@<TRIPOS>BOND
     1     1    11 1   
     2     1    15 1   
     3     2    13 1   
     4     3    18 2   
     5     4    10 2   
     6     5    16 1   
     7     5    18 1   
     8     5    27 1   
     9     6    11 ar  
    10     6    19 ar  
    11     6    28 1   
    12     7     8 ar  
    13     7    10 1   
    14     7    11 ar  
    15     8    13 ar  
    16     8    29 1   
    17     9    10 1   
    18     9    12 ar  
    19     9    22 ar  
    20    12    26 ar  
    21    12    30 1   
    22    13    19 ar  
    23    14    16 ar  
    24    14    20 ar  
    25    14    31 1   
    26    15    18 1   
    27    15    32 1   
    28    15    33 1   
    29    16    21 ar  
    30    17    22 ar  
    31    17    24 ar  
    32    17    34 1   
    33    19    35 1   
    34    20    25 ar  
    35    20    36 1   
    36    21    23 ar  
    37    21    37 1   
    38    22    38 1   
    39    23    25 ar  
    40    23    39 1   
    41    24    26 ar  
    42    24    40 1   
    43    25    41 1   
    44    26    42 1   
@<TRIPOS>SUBSTRUCTURE
     1 GFA         1 TEMP              0 ****  ****    0 ROOT
