@<TRIPOS>MOLECULE
GFA
   42    44     1     0     0
SMALL
abcg2


@<TRIPOS>ATOM
      1 O2          -0.6750     0.9330     1.0580 os         1 GFA      -0.316100
      2 CL1         -6.0840     1.9290    -0.9160 cl         1 GFA      -0.191000
      3 O3           1.6810    -0.1350     1.6470 o          1 GFA      -0.536100
      4 O1          -3.0500    -1.9690     1.3940 o          1 GFA      -0.509100
      5 N1           2.6100     0.7960    -0.2170 ns         1 GFA      -0.152000
      6 C12         -2.2970     2.4950     0.2070 ca         1 GFA      -0.173000
      7 C8          -2.7670     0.1340     0.3890 ca         1 GFA      -0.173600
      8 C9          -4.0720     0.3650    -0.0310 ca         1 GFA      -0.038000
      9 C6          -1.0790    -1.7690     0.1160 ca         1 GFA      -0.149600
     10 C7          -2.3450    -1.2640     0.7020 c          1 GFA       0.609300
     11 C13         -1.8870     1.2080     0.5380 ca         1 GFA       0.152100
     12 C1          -0.4150    -2.8250     0.7360 ca         1 GFA      -0.063000
     13 C10         -4.4680     1.6490    -0.3590 ca         1 GFA       0.088000
     14 C21          4.1750    -1.0120     0.3740 ca         1 GFA      -0.146500
     15 C14          0.4500     1.5580     0.4850 c3         1 GFA       0.078600
     16 C16          3.8630     0.1770    -0.2840 ca         1 GFA      -0.023000
     17 C4           0.6180    -1.7250    -1.5960 ca         1 GFA      -0.123000
     18 C15          1.6350     0.6300     0.7080 c          1 GFA       0.605100
     19 C11         -3.5860     2.7150    -0.2500 ca         1 GFA      -0.061000
     20 C20          5.4430    -1.5620     0.2310 ca         1 GFA      -0.085000
     21 C17          4.8300     0.7860    -1.0870 ca         1 GFA      -0.146500
     22 C5          -0.5590    -1.2290    -1.0600 ca         1 GFA      -0.063000
     23 C18          6.0870     0.2230    -1.2260 ca         1 GFA      -0.085000
     24 C3           1.2900    -2.7600    -0.9580 ca         1 GFA      -0.083000
     25 C19          6.4060    -0.9540    -0.5610 ca         1 GFA      -0.133000
     26 C2           0.7700    -3.3100     0.2070 ca         1 GFA      -0.123000
     27 HN1          2.4490     1.5020    -0.9200 hn         1 GFA       0.147000
     28 H12         -1.6250     3.3360     0.3180 ha         1 GFA       0.124000
     29 H9          -4.7610    -0.4630    -0.1320 ha         1 GFA       0.146000
     30 H1          -0.8120    -3.2540     1.6470 ha         1 GFA       0.120500
     31 H21          3.4430    -1.5180     0.9810 ha         1 GFA       0.126000
     32 H14          0.2960     1.7510    -0.5820 h1         1 GFA       0.053200
     33 H14A         0.6620     2.5200     0.9670 h1         1 GFA       0.053200
     34 H4           1.0130    -1.3010    -2.5100 ha         1 GFA       0.114500
     35 H11         -3.9020     3.7170    -0.5060 ha         1 GFA       0.132000
     36 H20          5.6720    -2.4860     0.7460 ha         1 GFA       0.114500
     37 H17          4.5940     1.7090    -1.6030 ha         1 GFA       0.126000
     38 H5          -1.0810    -0.4290    -1.5720 ha         1 GFA       0.120500
     39 H18          6.8200     0.7120    -1.8540 ha         1 GFA       0.114500
     40 H3           2.2170    -3.1360    -1.3690 ha         1 GFA       0.115000
     41 H19          7.3900    -1.3930    -0.6630 ha         1 GFA       0.116000
     42 H2           1.2920    -4.1170     0.7050 ha         1 GFA       0.114500
@<TRIPOS>BOND
     1     1    11 1   
     2     1    15 1   
     3     2    13 1   
     4     3    18 2   
     5     4    10 2   
     6     5    16 1   
     7     5    18 1   
     8     5    27 1   
     9     6    11 ar  
    10     6    19 ar  
    11     6    28 1   
    12     7     8 ar  
    13     7    10 1   
    14     7    11 ar  
    15     8    13 ar  
    16     8    29 1   
    17     9    10 1   
    18     9    12 ar  
    19     9    22 ar  
    20    12    26 ar  
    21    12    30 1   
    22    13    19 ar  
    23    14    16 ar  
    24    14    20 ar  
    25    14    31 1   
    26    15    18 1   
    27    15    32 1   
    28    15    33 1   
    29    16    21 ar  
    30    17    22 ar  
    31    17    24 ar  
    32    17    34 1   
    33    19    35 1   
    34    20    25 ar  
    35    20    36 1   
    36    21    23 ar  
    37    21    37 1   
    38    22    38 1   
    39    23    25 ar  
    40    23    39 1   
    41    24    26 ar  
    42    24    40 1   
    43    25    41 1   
    44    26    42 1   
@<TRIPOS>SUBSTRUCTURE
     1 GFA         1 TEMP              0 ****  ****    0 ROOT
