@<TRIPOS>MOLECULE
GFB
   61    64     1     0     0
SMALL
abcg2


@<TRIPOS>ATOM
      1 O1P         -0.1250     0.0480     1.9920 o          1 GFB      -0.853000
      2 P            0.9430     0.2220     0.9530 p5         1 GFB       1.465800
      3 O3P          2.1970     0.9640     1.2900 o          1 GFB      -0.853000
      4 O2P          1.2720    -1.2160     0.2330 os         1 GFB      -0.710800
      5 O5           0.2750     0.8620    -0.4100 os         1 GFB      -0.563400
      6 P1           2.1060    -2.4590     0.9110 p5         1 GFB       1.456800
      7 C5          -0.4960     2.0310    -0.2730 c3         1 GFB       0.212600
      8 C4          -1.5360     2.0730    -1.3780 c5         1 GFB       0.159300
      9 O4          -2.2800     0.8530    -1.4290 os         1 GFB      -0.407000
     10 C3          -2.5590     3.1730    -1.1360 c5         1 GFB       0.097300
     11 C1          -3.5900     1.0500    -0.9840 c5         1 GFB       0.321300
     12 O3          -3.0970     3.5800    -2.3670 oh         1 GFB      -0.715000
     13 C2          -3.6020     2.4190    -0.3030 c5         1 GFB       0.068300
     14 O2          -4.8890     2.9570    -0.3410 oh         1 GFB      -0.709000
     15 N9          -3.9660    -0.0390    -0.1170 na         1 GFB      -0.184500
     16 C8          -3.2280    -0.5830     0.9100 cc         1 GFB       0.463400
     17 C9          -5.1380    -0.7270    -0.1600 cc         1 GFB       0.106400
     18 N7          -3.8490    -1.5520     1.5100 nd         1 GFB      -0.600000
     19 C7          -5.0510    -1.6580     0.8580 cd         1 GFB       0.106500
     20 C6          -6.1430    -2.5490     1.0650 c          1 GFB       0.519500
     21 O6          -6.2610    -3.4340     1.8970 o          1 GFB      -0.542000
     22 N1          -7.1670    -2.2970     0.1420 ns         1 GFB      -0.459400
     23 C12         -7.1510    -1.3460    -0.8370 cd         1 GFB       0.695800
     24 N2          -8.2470    -1.2410    -1.6030 nv         1 GFB      -1.063200
     25 N3          -6.1430    -0.5310    -1.0240 nc         1 GFB      -0.679100
     26 C11          4.3930    -1.4550     0.0020 c6         1 GFB       0.414300
     27 C2A          4.7010    -0.9700    -1.4150 c6         1 GFB       0.104300
     28 O1           3.4340    -2.4590    -0.0750 os         1 GFB      -0.581400
     29 O7           5.5320    -2.0220     0.5860 os         1 GFB      -0.454000
     30 C10          5.8550     0.0240    -1.3610 c6         1 GFB       0.176300
     31 O10          3.6000    -0.3040    -1.9830 oh         1 GFB      -0.751000
     32 C4A          7.0530    -0.5940    -0.6560 c6         1 GFB       0.143300
     33 O9           6.2460     0.4660    -2.6350 oh         1 GFB      -0.676000
     34 C5A          6.6010    -1.1020     0.7180 c6         1 GFB       0.150300
     35 O8           7.5690    -1.6190    -1.4690 oh         1 GFB      -0.693000
     36 C6A          7.7090    -1.7880     1.4920 c3         1 GFB      -0.084100
     37 O1X          2.4970    -2.1030     2.3070 o          1 GFB      -0.829000
     38 O2X          1.3870    -3.7210     0.5730 o          1 GFB      -0.829000
     39 H5          -0.9830     2.0710     0.7080 h1         1 GFB       0.013700
     40 H5'A         0.1270     2.9300    -0.3560 h1         1 GFB       0.013700
     41 H4          -1.0370     2.2030    -2.3430 h1         1 GFB       0.091700
     42 H3          -2.1280     4.0180    -0.5810 h1         1 GFB       0.049700
     43 H1          -4.3050     1.0400    -1.8140 h2         1 GFB       0.090700
     44 HO3         -3.9510     3.9940    -2.1940 ho         1 GFB       0.501000
     45 H2          -3.2370     2.3180     0.7270 h1         1 GFB       0.078700
     46 HO2         -4.9530     3.6580     0.3170 ho         1 GFB       0.499000
     47 H8          -2.2300    -0.2380     1.1550 h5         1 GFB       0.144100
     48 HN1         -7.9870    -2.8830     0.2290 hn         1 GFB       0.301500
     49 H9           4.0430    -0.6000     0.6040 h2         1 GFB       0.080700
     50 H2A          4.9990    -1.8400    -2.0190 h1         1 GFB       0.056700
     51 H7           5.5290     0.8740    -0.7390 h1         1 GFB       0.050700
     52 H11          2.8210    -0.8640    -1.9100 ho         1 GFB       0.550000
     53 H4A          7.8010     0.1940    -0.4880 h1         1 GFB       0.012700
     54 H10          5.4880     0.8910    -3.0490 ho         1 GFB       0.453000
     55 H5A          6.2660    -0.2220     1.2890 h1         1 GFB       0.048700
     56 HO4          8.4160    -1.8990    -1.1100 ho         1 GFB       0.478000
     57 H6A          7.3740    -2.0500     2.4950 hc         1 GFB       0.031033
     58 H6AA         8.0370    -2.7050     1.0000 hc         1 GFB       0.031033
     59 H6AB         8.5690    -1.1260     1.5910 hc         1 GFB       0.031033
     60 HN2         -8.1860    -0.6600    -2.4230 hn         1 GFB       0.485000
     61 HN2A        -8.9350    -1.9740    -1.6290 hn         1 GFB       0.485000
@<TRIPOS>BOND
     1     1     2 1   
     2     2     3 1   
     3     2     4 1   
     4     2     5 1   
     5     4     6 1   
     6     5     7 1   
     7     6    28 1   
     8     6    37 1   
     9     6    38 1   
    10     7     8 1   
    11     7    39 1   
    12     7    40 1   
    13     8     9 1   
    14     8    10 1   
    15     8    41 1   
    16     9    11 1   
    17    10    12 1   
    18    10    13 1   
    19    10    42 1   
    20    11    13 1   
    21    11    15 1   
    22    11    43 1   
    23    12    44 1   
    24    13    14 1   
    25    13    45 1   
    26    14    46 1   
    27    15    16 1   
    28    15    17 1   
    29    16    18 2   
    30    16    47 1   
    31    17    19 2   
    32    17    25 1   
    33    18    19 1   
    34    19    20 1   
    35    20    21 2   
    36    20    22 1   
    37    22    23 1   
    38    22    48 1   
    39    23    24 1   
    40    23    25 2   
    41    24    60 1   
    42    24    61 1   
    43    26    27 1   
    44    26    28 1   
    45    26    29 1   
    46    26    49 1   
    47    27    30 1   
    48    27    31 1   
    49    27    50 1   
    50    29    34 1   
    51    30    32 1   
    52    30    33 1   
    53    30    51 1   
    54    31    52 1   
    55    32    34 1   
    56    32    35 1   
    57    32    53 1   
    58    33    54 1   
    59    34    36 1   
    60    34    55 1   
    61    35    56 1   
    62    36    57 1   
    63    36    58 1   
    64    36    59 1   
@<TRIPOS>SUBSTRUCTURE
     1 GFB         1 TEMP              0 ****  ****    0 ROOT
