@<TRIPOS>MOLECULE
GFB
   61    64     1     0     0
SMALL
No Charge or Current Charge


@<TRIPOS>ATOM
      1 O1P         -1.3090     2.4460     2.8210 o          1 GFB      -0.853000
      2 P            0.1220     2.7300     2.5090 p5         1 GFB       1.465800
      3 O3P          0.8820     3.2430     3.6860 o          1 GFB      -0.853000
      4 O2P          0.8410     1.5460     1.7540 os         1 GFB      -0.710800
      5 O5           0.2290     3.8280     1.3280 os         1 GFB      -0.563400
      6 P1           1.3600     0.4190     2.7300 p5         1 GFB       1.456800
      7 C5          -0.8280     4.0530     0.3730 c3         1 GFB       0.212600
      8 C4          -0.6700     3.1760    -0.9100 c5         1 GFB       0.159300
      9 O4          -0.6220     1.7640    -0.5830 os         1 GFB      -0.407000
     10 C3          -1.8740     3.3190    -1.9020 c5         1 GFB       0.097300
     11 C1          -1.8420     1.1160    -0.9920 c5         1 GFB       0.321300
     12 O3          -1.5430     2.9630    -3.2520 oh         1 GFB      -0.715000
     13 C2          -2.8530     2.2780    -1.2840 c5         1 GFB       0.068300
     14 O2          -3.9110     1.9270    -2.2000 oh         1 GFB      -0.709000
     15 N9          -2.2080     0.1100     0.0020 na         1 GFB      -0.184500
     16 C8          -2.9540     0.3050     1.1510 cc         1 GFB       0.463400
     17 C9          -1.9180    -1.2280    -0.0550 cc         1 GFB       0.106400
     18 N7          -3.1680    -0.8450     1.7920 nd         1 GFB      -0.600000
     19 C7          -2.5010    -1.8090     1.0450 cd         1 GFB       0.106500
     20 C6          -2.3530    -3.2810     1.2530 c          1 GFB       0.519500
     21 O6          -2.8300    -3.9250     2.1780 o          1 GFB      -0.542000
     22 N1          -1.6070    -3.8680     0.2720 ns         1 GFB      -0.459400
     23 C12         -1.0650    -3.1840    -0.7590 cd         1 GFB       0.695800
     24 N2          -0.3270    -3.8730    -1.6090 nv         1 GFB      -1.063200
     25 N3          -1.1810    -1.9020    -1.0090 nc         1 GFB      -0.679100
     26 C11          2.3160    -1.0380     0.7460 c6         1 GFB       0.414300
     27 C2A          2.2110    -0.1450    -0.5560 c6         1 GFB       0.104300
     28 O1           1.2700    -0.8090     1.6960 os         1 GFB      -0.581400
     29 O7           2.2500    -2.4340     0.3800 os         1 GFB      -0.454000
     30 C10          3.3080    -0.5800    -1.5770 c6         1 GFB       0.176300
     31 O10          2.3210     1.2790    -0.3190 oh         1 GFB      -0.751000
     32 C4A          3.2560    -2.1130    -1.8570 c6         1 GFB       0.143300
     33 O9           3.1530     0.1710    -2.7940 oh         1 GFB      -0.676000
     34 C5A          3.3290    -2.8560    -0.4820 c6         1 GFB       0.150300
     35 O8           2.0600    -2.4250    -2.6020 oh         1 GFB      -0.693000
     36 C6A          3.2630    -4.4000    -0.6040 c3         1 GFB      -0.084100
     37 O1X          2.7770     0.6370     3.1440 o          1 GFB      -0.829000
     38 O2X          0.4680     0.1230     3.8890 o          1 GFB      -0.829000
     39 H5          -1.8110     3.8730     0.8240 h1         1 GFB       0.013700
     40 H5'A        -0.8150     5.1060     0.0630 h1         1 GFB       0.013700
     41 H4           0.2740     3.4600    -1.3930 h1         1 GFB       0.091700
     42 H3          -2.2980     4.3330    -1.8730 h1         1 GFB       0.049700
     43 H1          -1.6520     0.5670    -1.9230 h2         1 GFB       0.090700
     44 HO3         -2.3440     2.4910    -3.5870 ho         1 GFB       0.501000
     45 H2          -3.2770     2.6630    -0.3450 h1         1 GFB       0.078700
     46 HO2         -4.6360     2.5890    -2.0950 ho         1 GFB       0.499000
     47 H8          -3.3130     1.2820     1.4550 h5         1 GFB       0.144100
     48 HN1         -1.4700    -4.8630     0.3470 hn         1 GFB       0.301500
     49 H9           3.2910    -0.8530     1.2250 h2         1 GFB       0.080700
     50 H2A          1.2290    -0.3580    -1.0030 h1         1 GFB       0.056700
     51 H7           4.2890    -0.3550    -1.1310 h1         1 GFB       0.050700
     52 H11          1.6180     1.4880     0.3700 ho         1 GFB       0.550000
     53 H4A          4.1390    -2.3890    -2.4510 h1         1 GFB       0.012700
     54 H10          2.8810     1.0660    -2.4810 ho         1 GFB       0.453000
     55 H5A          4.2830    -2.6070     0.0060 h1         1 GFB       0.048700
     56 HO4          1.9790    -1.6790    -3.2420 ho         1 GFB       0.478000
     57 H6A          3.3290    -4.8740     0.3830 hc         1 GFB       0.031033
     58 H6AA         2.3340    -4.7350    -1.0770 hc         1 GFB       0.031033
     59 H6AB         4.0970    -4.7780    -1.2070 hc         1 GFB       0.031033
     60 HN2          0.3940    -3.2960    -2.0420 hn         1 GFB       0.485000
     61 HN2A         0.0150    -4.7660    -1.2840 hn         1 GFB       0.485000
@<TRIPOS>BOND
     1     1     2 1   
     2     2     3 1   
     3     2     4 1   
     4     2     5 1   
     5     4     6 1   
     6     5     7 1   
     7     6    28 1   
     8     6    37 1   
     9     6    38 1   
    10     7     8 1   
    11     7    39 1   
    12     7    40 1   
    13     8     9 1   
    14     8    10 1   
    15     8    41 1   
    16     9    11 1   
    17    10    12 1   
    18    10    13 1   
    19    10    42 1   
    20    11    13 1   
    21    11    15 1   
    22    11    43 1   
    23    12    44 1   
    24    13    14 1   
    25    13    45 1   
    26    14    46 1   
    27    15    16 1   
    28    15    17 1   
    29    16    18 2   
    30    16    47 1   
    31    17    19 2   
    32    17    25 1   
    33    18    19 1   
    34    19    20 1   
    35    20    21 2   
    36    20    22 1   
    37    22    23 1   
    38    22    48 1   
    39    23    24 1   
    40    23    25 2   
    41    24    60 1   
    42    24    61 1   
    43    26    27 1   
    44    26    28 1   
    45    26    29 1   
    46    26    49 1   
    47    27    30 1   
    48    27    31 1   
    49    27    50 1   
    50    29    34 1   
    51    30    32 1   
    52    30    33 1   
    53    30    51 1   
    54    31    52 1   
    55    32    34 1   
    56    32    35 1   
    57    32    53 1   
    58    33    54 1   
    59    34    36 1   
    60    34    55 1   
    61    35    56 1   
    62    36    57 1   
    63    36    58 1   
    64    36    59 1   
@<TRIPOS>SUBSTRUCTURE
     1 GFB         1 TEMP              0 ****  ****    0 ROOT
