@<TRIPOS>MOLECULE
GFC
   45    47     1     0     0
SMALL
No Charge or Current Charge


@<TRIPOS>ATOM
      1 N1          -6.7540     1.7460     1.6160 ns         1 GFC      -0.458400
      2 C2          -5.8810     1.0030     2.3380 cc         1 GFC       0.608800
      3 N2          -6.1320     0.9270     3.6350 nv         1 GFC      -1.065200
      4 N3          -4.8220     0.3600     1.8960 nd         1 GFC      -0.671100
      5 C4          -4.6380     0.5070     0.5200 cd         1 GFC       0.084400
      6 C5          -5.4670     1.2360    -0.2910 cc         1 GFC       0.070500
      7 C6          -6.6500     1.9370     0.2730 c          1 GFC       0.524500
      8 O6          -7.4610     2.6120    -0.3500 o          1 GFC      -0.591000
      9 N7          -5.0290     1.1910    -1.5960 nc         1 GFC      -0.637000
     10 C8          -3.9290     0.4320    -1.5740 cd         1 GFC       0.449400
     11 N9          -3.6520    -0.0170    -0.2840 na         1 GFC      -0.192500
     12 PA           2.1400    -1.8390    -1.5390 p5         1 GFC       1.459800
     13 PB           2.1480     0.5460    -0.2910 p5         1 GFC       1.492400
     14 PG           1.9320     2.5300     1.7130 p5         1 GFC       1.285500
     15 C1          -2.5440    -0.8710     0.1310 c5         1 GFC       0.320300
     16 O1A          3.4000    -1.3930    -2.2040 o          1 GFC      -0.873000
     17 O1B          1.8300     1.2090    -1.6010 o          1 GFC      -0.825000
     18 O1G          2.4810     3.4330     0.6570 o          1 GFC      -0.897167
     19 C7          -2.9200    -2.3650     0.3890 c5         1 GFC      -0.168400
     20 O2A          2.2700    -3.2710    -1.1370 o          1 GFC      -0.873000
     21 O2B          3.6000     0.6270     0.0750 o          1 GFC      -0.825000
     22 O2G          1.0150     3.3440     2.5730 o          1 GFC      -0.897167
     23 C3          -2.3480    -3.0730    -0.8620 c5         1 GFC       0.115300
     24 O3          -2.1230    -4.4640    -0.6280 oh         1 GFC      -0.695000
     25 O3A          1.6970    -0.9750    -0.3000 os         1 GFC      -0.692800
     26 C3B          0.9340     1.1110     1.0280 c3         1 GFC      -0.077000
     27 F3B         -0.2280     1.5720     0.4620 f          1 GFC      -0.266000
     28 Cl3B         0.4230    -0.1490     2.3150 cl         1 GFC      -0.402000
     29 O3G          3.0230     2.0440     2.6140 o          1 GFC      -0.897167
     30 C9          -1.0470    -2.2470    -1.0280 c5         1 GFC       0.157300
     31 O4          -1.5470    -0.8990    -0.9170 os         1 GFC      -0.388000
     32 C10         -0.3190    -2.4510    -2.3880 c3         1 GFC       0.238600
     33 O5           0.8620    -1.6340    -2.5020 os         1 GFC      -0.546400
     34 HN1         -7.5400     2.1750     2.0770 hn         1 GFC       0.284500
     35 HN2         -6.6580     1.6840     4.0540 hn         1 GFC       0.469000
     36 HN2A        -5.3790     0.5450     4.1960 hn         1 GFC       0.469000
     37 H8          -3.3070     0.1700    -2.4230 h5         1 GFC       0.104100
     38 H1          -2.1290    -0.4170     1.0390 h2         1 GFC       0.084700
     39 H2          -2.4430    -2.7210     1.3100 hc         1 GFC       0.052200
     40 H2'A        -3.9990    -2.5180     0.5030 hc         1 GFC       0.052200
     41 H3          -3.0080    -2.9290    -1.7300 h1         1 GFC       0.042700
     42 HO3         -2.9980    -4.8690    -0.4270 ho         1 GFC       0.476000
     43 H4          -0.3600    -2.4520    -0.1970 h1         1 GFC       0.080700
     44 H5          -0.0590    -3.5110    -2.4980 h1         1 GFC       0.008700
     45 H5'A        -1.0170    -2.2040    -3.1990 h1         1 GFC       0.008700
@<TRIPOS>BOND
     1     1     2 1   
     2     1     7 1   
     3     1    34 1   
     4     2     3 1   
     5     2     4 2   
     6     3    35 1   
     7     3    36 1   
     8     4     5 1   
     9     5     6 2   
    10     5    11 1   
    11     6     7 1   
    12     6     9 1   
    13     7     8 2   
    14     9    10 2   
    15    10    11 1   
    16    10    37 1   
    17    11    15 1   
    18    12    16 1   
    19    12    20 1   
    20    12    25 1   
    21    12    33 1   
    22    13    17 1   
    23    13    21 1   
    24    13    25 1   
    25    13    26 1   
    26    14    18 1   
    27    14    22 1   
    28    14    26 1   
    29    14    29 1   
    30    15    19 1   
    31    15    31 1   
    32    15    38 1   
    33    19    23 1   
    34    19    39 1   
    35    19    40 1   
    36    23    24 1   
    37    23    30 1   
    38    23    41 1   
    39    24    42 1   
    40    26    27 1   
    41    26    28 1   
    42    30    31 1   
    43    30    32 1   
    44    30    43 1   
    45    32    33 1   
    46    32    44 1   
    47    32    45 1   
@<TRIPOS>SUBSTRUCTURE
     1 GFC         1 TEMP              0 ****  ****    0 ROOT
