@<TRIPOS>MOLECULE
GFC
   45    47     1     0     0
SMALL
abcg2


@<TRIPOS>ATOM
      1 N1          -7.7560     1.8970    -0.3370 ns         1 GFC      -0.458400
      2 C2          -7.3660     1.4950     0.9080 cc         1 GFC       0.608800
      3 N2          -8.2240     1.7150     1.9150 nv         1 GFC      -1.065200
      4 N3          -6.2280     0.8890     1.1380 nd         1 GFC      -0.671100
      5 C4          -5.4970     0.7050     0.0290 cd         1 GFC       0.084400
      6 C5          -5.7990     1.0660    -1.2720 cc         1 GFC       0.070500
      7 C6          -7.0340     1.7290    -1.5260 c          1 GFC       0.524500
      8 O6          -7.4840     2.1300    -2.5870 o          1 GFC      -0.591000
      9 N7          -4.7870     0.7000    -2.1200 nc         1 GFC      -0.637000
     10 C8          -3.9040     0.1340    -1.3540 cd         1 GFC       0.449400
     11 N9          -4.2790     0.1100    -0.0350 na         1 GFC      -0.192500
     12 PA           1.4640    -1.8550    -1.3520 p5         1 GFC       1.459800
     13 PB           3.3950     0.2940    -0.8170 p5         1 GFC       1.492400
     14 PG           5.8130     1.7030     0.7390 p5         1 GFC       1.285500
     15 C1          -3.5740    -0.4650     1.1110 c5         1 GFC       0.320300
     16 O1A          1.1310    -1.0700    -2.5820 o          1 GFC      -0.873000
     17 O1B          2.3620     1.3680    -0.6690 o          1 GFC      -0.825000
     18 O1G          4.9860     2.9450     0.4140 o          1 GFC      -0.897167
     19 C7          -4.0980    -1.8480     1.4740 c5         1 GFC      -0.168400
     20 O2A          1.7270    -3.3270    -1.4570 o          1 GFC      -0.873000
     21 O2B          4.2240     0.1740    -2.0600 o          1 GFC      -0.825000
     22 O2G          6.3010     1.6300     2.1840 o          1 GFC      -0.897167
     23 C3          -3.1890    -2.7580     0.6540 c5         1 GFC       0.115300
     24 O3          -3.0290    -4.0560     1.1530 oh         1 GFC      -0.695000
     25 O3A          2.6750    -1.1790    -0.5110 os         1 GFC      -0.692800
     26 C3B          4.5220     0.3170     0.6540 c3         1 GFC      -0.077000
     27 F3B          3.7140     0.3860     1.7820 f          1 GFC      -0.266000
     28 CL3B         5.3760    -1.2780     0.7780 cl         1 GFC      -0.402000
     29 O3G          6.8540     1.3350    -0.3070 o          1 GFC      -0.897167
     30 C9          -1.8650    -2.0020     0.7360 c5         1 GFC       0.157300
     31 O4          -2.2270    -0.6220     0.7760 os         1 GFC      -0.388000
     32 C10         -0.9390    -2.2800    -0.4210 c3         1 GFC       0.238600
     33 O5           0.2850    -1.6180    -0.2140 os         1 GFC      -0.546400
     34 HN1         -8.6500     2.3640    -0.4310 hn         1 GFC       0.284500
     35 HN2         -8.9970     2.3480     1.8070 hn         1 GFC       0.469000
     36 HN2A        -7.8870     1.5760     2.8530 hn         1 GFC       0.469000
     37 H8          -2.9630    -0.2710    -1.6880 h5         1 GFC       0.104100
     38 H1          -3.6820     0.2480     1.9300 h2         1 GFC       0.084700
     39 H2          -3.9300    -2.0300     2.5380 hc         1 GFC       0.052200
     40 H2'A        -5.1600    -1.9680     1.2690 hc         1 GFC       0.052200
     41 H3          -3.5320    -2.7800    -0.3900 h1         1 GFC       0.042700
     42 HO3         -3.7960    -4.5760     0.8980 ho         1 GFC       0.476000
     43 H4          -1.3650    -2.2720     1.6760 h1         1 GFC       0.080700
     44 H5          -0.8010    -3.3660    -0.4830 h1         1 GFC       0.008700
     45 H5'A        -1.4150    -1.9640    -1.3590 h1         1 GFC       0.008700
@<TRIPOS>BOND
     1     1     2 1   
     2     1     7 1   
     3     1    34 1   
     4     2     3 1   
     5     2     4 2   
     6     3    35 1   
     7     3    36 1   
     8     4     5 1   
     9     5     6 2   
    10     5    11 1   
    11     6     7 1   
    12     6     9 1   
    13     7     8 2   
    14     9    10 2   
    15    10    11 1   
    16    10    37 1   
    17    11    15 1   
    18    12    16 1   
    19    12    20 1   
    20    12    25 1   
    21    12    33 1   
    22    13    17 1   
    23    13    21 1   
    24    13    25 1   
    25    13    26 1   
    26    14    18 1   
    27    14    22 1   
    28    14    26 1   
    29    14    29 1   
    30    15    19 1   
    31    15    31 1   
    32    15    38 1   
    33    19    23 1   
    34    19    39 1   
    35    19    40 1   
    36    23    24 1   
    37    23    30 1   
    38    23    41 1   
    39    24    42 1   
    40    26    27 1   
    41    26    28 1   
    42    30    31 1   
    43    30    32 1   
    44    30    43 1   
    45    32    33 1   
    46    32    44 1   
    47    32    45 1   
@<TRIPOS>SUBSTRUCTURE
     1 GFC         1 TEMP              0 ****  ****    0 ROOT
