@<TRIPOS>MOLECULE
GFD
   68    71     1     0     0
SMALL
No Charge or Current Charge


@<TRIPOS>ATOM
      1 C10         43.5710    -5.7680    15.5560 ca         1 GFD      -0.060000
      2 N12         47.0660    -8.9470    14.1520 nh         1 GFD      -0.731300
      3 C13         45.5070    -2.9690    16.3570 c3         1 GFD       0.109800
      4 C17         47.6860    -8.5740    11.5630 ca         1 GFD      -0.385500
      5 C22         46.3840    -2.4180    12.8230 ca         1 GFD      -0.356500
      6 C24         48.4930    -1.2150    12.6260 ca         1 GFD      -0.201500
      7 C26         47.9370    -2.9670    11.0350 ca         1 GFD      -0.201500
      8 C28         49.0500    -8.8410    11.3390 ca         1 GFD       0.044000
      9 C01         47.0560    -5.2370    14.3190 ca         1 GFD      -0.136000
     10 C02         47.4650    -6.5600    14.1070 ca         1 GFD      -0.125000
     11 C03         46.5920    -7.6330    14.3520 ca         1 GFD       0.249000
     12 C04         45.2890    -7.3640    14.8520 ca         1 GFD      -0.004000
     13 C05         44.8720    -6.0210    15.0590 ca         1 GFD       0.003000
     14 C06         45.7610    -4.9500    14.7790 ca         1 GFD       0.270000
     15 C07         44.3970    -8.4170    15.1680 ca         1 GFD      -0.080000
     16 C08         43.1120    -8.1490    15.6630 ca         1 GFD      -0.092000
     17 C09         42.6980    -6.8250    15.8530 ca         1 GFD      -0.097000
     18 C16         48.2850    -9.4160    14.8850 c3         1 GFD       0.101800
     19 C23         47.2730    -1.4300    13.2880 ca         1 GFD       0.027500
     20 C25         48.8280    -1.9860    11.4930 ca         1 GFD       0.199100
     21 C27         46.7170    -3.1900    11.6940 ca         1 GFD       0.027500
     22 C29         49.7920    -8.0030    10.4920 ca         1 GFD      -0.227000
     23 C30         49.1790    -6.9130     9.8670 ca         1 GFD       0.382000
     24 C31         47.8240    -6.6460    10.0880 ca         1 GFD      -0.227000
     25 C32         47.0710    -7.4710    10.9390 ca         1 GFD       0.044000
     26 C35         46.1610    -3.8110    17.4870 c          1 GFD       0.607100
     27 C38         48.2100   -10.8190    15.5490 c          1 GFD       0.621100
     28 C41         50.9940    -0.8430    11.1910 c3         1 GFD       0.145900
     29 N11         45.4070    -3.6070    15.0110 nh         1 GFD      -0.719300
     30 N33         49.9050    -6.1150     9.0340 nv         1 GFD      -1.098000
     31 N36         47.5100    -3.9240    17.4480 nt         1 GFD      -0.615000
     32 N40         47.0830   -11.0820    16.2490 nt         1 GFD      -0.587000
     33 O18         45.3020    -9.4520    12.3580 o          1 GFD      -0.526000
     34 O19         47.3320   -10.9870    12.6250 o          1 GFD      -0.526000
     35 O20         43.9760    -3.5710    12.8910 o          1 GFD      -0.520500
     36 O21         44.3550    -1.4160    14.2260 o          1 GFD      -0.520500
     37 O34         50.0100    -1.8180    10.8020 os         1 GFD      -0.339100
     38 O37         45.5270    -4.3590    18.3750 o          1 GFD      -0.562100
     39 O39         49.0980   -11.6550    15.4780 o          1 GFD      -0.606100
     40 S14         44.8370    -2.6940    13.6920 sy         1 GFD       1.158600
     41 S15         46.7280    -9.6520    12.6320 sy         1 GFD       1.148600
     42 H101        43.2240    -4.7510    15.7180 ha         1 GFD       0.131000
     43 H132        46.0930    -2.0440    16.2810 h1         1 GFD       0.064200
     44 H131        44.5050    -2.6950    16.7090 h1         1 GFD       0.064200
     45 H241        49.1610    -0.4490    13.0060 ha         1 GFD       0.125000
     46 H261        48.1960    -3.5580    10.1630 ha         1 GFD       0.125000
     47 H281        49.5370    -9.6930    11.8120 ha         1 GFD       0.140000
     48 H011        47.7540    -4.4270    14.1320 ha         1 GFD       0.113000
     49 H021        48.4700    -6.7550    13.7450 ha         1 GFD       0.120000
     50 H071        44.6900    -9.4540    15.0300 ha         1 GFD       0.119000
     51 H081        42.4370    -8.9700    15.8960 ha         1 GFD       0.116000
     52 H091        41.7010    -6.6160    16.2350 ha         1 GFD       0.119000
     53 H161        49.1550    -9.4140    14.2170 h1         1 GFD       0.073700
     54 H162        48.5060    -8.7160    15.7000 h1         1 GFD       0.073700
     55 H231        47.0250    -0.8310    14.1640 ha         1 GFD       0.139000
     56 H271        46.0420    -3.9630    11.3260 ha         1 GFD       0.139000
     57 H291        50.8430    -8.2120    10.3170 ha         1 GFD       0.116500
     58 H311        47.3450    -5.8050     9.5970 ha         1 GFD       0.116500
     59 H321        46.0160    -7.2530    11.1040 ha         1 GFD       0.140000
     60 H411        51.8540    -0.8780    10.5100 h1         1 GFD       0.048367
     61 H412        50.5750     0.1700    11.1560 h1         1 GFD       0.048367
     62 H413        51.3590    -1.0400    12.2070 h1         1 GFD       0.048367
     63 H331        49.5110    -5.2280     8.7290 hn         1 GFD       0.478500
     64 H332        50.9190    -6.1960     9.0260 hn         1 GFD       0.478500
     65 H362        47.9820    -4.4670    18.1560 hn         1 GFD       0.314500
     66 H361        48.0290    -3.4900    16.6990 hn         1 GFD       0.314500
     67 H402        46.9730   -11.9770    16.6990 hn         1 GFD       0.320000
     68 H401        46.3520   -10.3870    16.2840 hn         1 GFD       0.320000
@<TRIPOS>BOND
     1     1    13 ar  
     2     1    17 ar  
     3     1    42 1   
     4     2    11 1   
     5     2    18 1   
     6     2    41 1   
     7     3    26 1   
     8     3    29 1   
     9     3    43 1   
    10     3    44 1   
    11     4     8 ar  
    12     4    25 ar  
    13     4    41 1   
    14     5    19 ar  
    15     5    21 ar  
    16     5    40 1   
    17     6    19 ar  
    18     6    20 ar  
    19     6    45 1   
    20     7    20 ar  
    21     7    21 ar  
    22     7    46 1   
    23     8    22 ar  
    24     8    47 1   
    25     9    10 ar  
    26     9    14 ar  
    27     9    48 1   
    28    10    11 ar  
    29    10    49 1   
    30    11    12 ar  
    31    12    13 ar  
    32    12    15 ar  
    33    13    14 ar  
    34    14    29 1   
    35    15    16 ar  
    36    15    50 1   
    37    16    17 ar  
    38    16    51 1   
    39    17    52 1   
    40    18    27 1   
    41    18    53 1   
    42    18    54 1   
    43    19    55 1   
    44    20    37 1   
    45    21    56 1   
    46    22    23 ar  
    47    22    57 1   
    48    23    24 ar  
    49    23    30 1   
    50    24    25 ar  
    51    24    58 1   
    52    25    59 1   
    53    26    31 1   
    54    26    38 2   
    55    27    32 1   
    56    27    39 2   
    57    28    37 1   
    58    28    60 1   
    59    28    61 1   
    60    28    62 1   
    61    29    40 1   
    62    30    63 1   
    63    30    64 1   
    64    31    65 1   
    65    31    66 1   
    66    32    67 1   
    67    32    68 1   
    68    33    41 2   
    69    34    41 2   
    70    35    40 2   
    71    36    40 2   
@<TRIPOS>SUBSTRUCTURE
     1 GFD         1 TEMP              0 ****  ****    0 ROOT
