@<TRIPOS>MOLECULE
GFD
   68    71     1     0     0
SMALL
bcc


@<TRIPOS>ATOM
      1 C10         43.6040    -5.7360    15.5280 ca         1 GFD      -0.078000
      2 N12         46.8550    -9.1730    14.2220 nh         1 GFD      -0.592900
      3 C13         46.5080    -3.0140    15.9890 c3         1 GFD       0.109800
      4 C17         47.6910    -8.7130    11.6290 ca         1 GFD      -0.385500
      5 C22         46.3390    -2.3590    12.8730 ca         1 GFD      -0.356500
      6 C24         48.0860    -0.7730    12.4130 ca         1 GFD      -0.219500
      7 C26         47.9710    -2.8520    11.1890 ca         1 GFD      -0.219500
      8 C28         49.0240    -9.0680    11.4240 ca         1 GFD       0.026000
      9 C01         47.1690    -5.4810    14.4870 ca         1 GFD      -0.154000
     10 C02         47.4720    -6.8320    14.2670 ca         1 GFD      -0.143000
     11 C03         46.5180    -7.8020    14.4330 ca         1 GFD       0.110600
     12 C04         45.2030    -7.4550    14.8460 ca         1 GFD      -0.004000
     13 C05         44.8970    -6.0850    15.0750 ca         1 GFD       0.003000
     14 C06         45.9070    -5.1080    14.8660 ca         1 GFD       0.131600
     15 C07         44.1940    -8.4220    15.0650 ca         1 GFD      -0.098000
     16 C08         42.9520    -8.0520    15.4980 ca         1 GFD      -0.110000
     17 C09         42.6540    -6.6960    15.7360 ca         1 GFD      -0.115000
     18 C16         48.0510    -9.6730    14.8930 c3         1 GFD       0.101800
     19 C23         46.9570    -1.1420    13.1260 ca         1 GFD       0.009500
     20 C25         48.6030    -1.6290    11.4400 ca         1 GFD       0.199100
     21 C27         46.8480    -3.2170    11.8980 ca         1 GFD       0.009500
     22 C29         49.8500    -8.2500    10.6840 ca         1 GFD      -0.245000
     23 C30         49.3660    -7.0540    10.1220 ca         1 GFD       0.243600
     24 C31         48.0150    -6.7200    10.3300 ca         1 GFD      -0.245000
     25 C32         47.1930    -7.5330    11.0760 ca         1 GFD       0.026000
     26 C35         46.6010    -3.6960    17.3500 c          1 GFD       0.674100
     27 C38         47.9410   -11.0980    15.4180 c          1 GFD       0.688100
     28 C41         50.3950    -0.1590    10.9280 c3         1 GFD       0.122700
     29 N11         45.5990    -3.7420    15.1190 nh         1 GFD      -0.580900
     30 N33         50.1650    -6.2660     9.3660 nv         1 GFD      -0.849200
     31 N36         47.8020    -3.5800    17.9290 nt         1 GFD      -0.682000
     32 N40         46.7170   -11.5040    15.7670 nt         1 GFD      -0.654000
     33 O18         45.2780    -9.4280    12.2750 o          1 GFD      -0.596800
     34 O19         47.1600   -11.0690    12.6230 o          1 GFD      -0.596800
     35 O20         44.1620    -3.7910    13.0570 o          1 GFD      -0.591300
     36 O21         44.3370    -1.6930    14.4290 o          1 GFD      -0.591300
     37 O34         49.6850    -1.3640    10.7030 os         1 GFD      -0.315900
     38 O37         45.6460    -4.2510    17.8610 o          1 GFD      -0.562100
     39 O39         48.9540   -11.7580    15.5810 o          1 GFD      -0.606100
     40 S14         44.9580    -2.8650    13.8400 sy         1 GFD       1.300200
     41 S15         46.6580    -9.7050    12.6270 sy         1 GFD       1.290200
     42 H101        43.3770    -4.7000    15.7290 ha         1 GFD       0.149000
     43 H132        47.5000    -2.8840    15.5440 h1         1 GFD       0.064200
     44 H131        46.1090    -2.0130    16.1660 h1         1 GFD       0.064200
     45 H241        48.5440     0.1820    12.6280 ha         1 GFD       0.143000
     46 H261        48.3730    -3.5100    10.4290 ha         1 GFD       0.143000
     47 H281        49.4240    -9.9870    11.8310 ha         1 GFD       0.158000
     48 H011        47.9450    -4.7410    14.3430 ha         1 GFD       0.131000
     49 H021        48.4750    -7.1010    13.9610 ha         1 GFD       0.138000
     50 H071        44.4050    -9.4650    14.8840 ha         1 GFD       0.137000
     51 H081        42.1930    -8.8050    15.6650 ha         1 GFD       0.134000
     52 H091        41.6710    -6.4160    16.0900 ha         1 GFD       0.137000
     53 H161        48.9550    -9.6030    14.2830 h1         1 GFD       0.073700
     54 H162        48.2210    -9.0360    15.7640 h1         1 GFD       0.073700
     55 H231        46.5660    -0.4640    13.8730 ha         1 GFD       0.157000
     56 H271        46.3720    -4.1650    11.6830 ha         1 GFD       0.157000
     57 H291        50.8830    -8.5360    10.5270 ha         1 GFD       0.134500
     58 H311        47.6140    -5.8140     9.8940 ha         1 GFD       0.134500
     59 H321        46.1610    -7.2450    11.2220 ha         1 GFD       0.158000
     60 H411        51.2370    -0.1670    10.2410 h1         1 GFD       0.048367
     61 H412        49.7790     0.7190    10.7240 h1         1 GFD       0.048367
     62 H413        50.7740    -0.0990    11.9510 h1         1 GFD       0.048367
     63 H331        49.8680    -5.3290     9.1540 hn         1 GFD       0.423300
     64 H332        51.1600    -6.4050     9.3950 hn         1 GFD       0.423300
     65 H362        47.9490    -3.9190    18.8660 hn         1 GFD       0.314500
     66 H361        48.5780    -3.1300    17.4740 hn         1 GFD       0.314500
     67 H402        46.5750   -12.4310    16.1340 hn         1 GFD       0.320000
     68 H401        45.9040   -10.9450    15.5810 hn         1 GFD       0.320000
@<TRIPOS>BOND
     1     1    13 ar  
     2     1    17 ar  
     3     1    42 1   
     4     2    11 1   
     5     2    18 1   
     6     2    41 1   
     7     3    26 1   
     8     3    29 1   
     9     3    43 1   
    10     3    44 1   
    11     4     8 ar  
    12     4    25 ar  
    13     4    41 1   
    14     5    19 ar  
    15     5    21 ar  
    16     5    40 1   
    17     6    19 ar  
    18     6    20 ar  
    19     6    45 1   
    20     7    20 ar  
    21     7    21 ar  
    22     7    46 1   
    23     8    22 ar  
    24     8    47 1   
    25     9    10 ar  
    26     9    14 ar  
    27     9    48 1   
    28    10    11 ar  
    29    10    49 1   
    30    11    12 ar  
    31    12    13 ar  
    32    12    15 ar  
    33    13    14 ar  
    34    14    29 1   
    35    15    16 ar  
    36    15    50 1   
    37    16    17 ar  
    38    16    51 1   
    39    17    52 1   
    40    18    27 1   
    41    18    53 1   
    42    18    54 1   
    43    19    55 1   
    44    20    37 1   
    45    21    56 1   
    46    22    23 ar  
    47    22    57 1   
    48    23    24 ar  
    49    23    30 1   
    50    24    25 ar  
    51    24    58 1   
    52    25    59 1   
    53    26    31 1   
    54    26    38 2   
    55    27    32 1   
    56    27    39 2   
    57    28    37 1   
    58    28    60 1   
    59    28    61 1   
    60    28    62 1   
    61    29    40 1   
    62    30    63 1   
    63    30    64 1   
    64    31    65 1   
    65    31    66 1   
    66    32    67 1   
    67    32    68 1   
    68    33    41 2   
    69    34    41 2   
    70    35    40 2   
    71    36    40 2   
@<TRIPOS>SUBSTRUCTURE
     1 GFD         1 TEMP              0 ****  ****    0 ROOT
