@<TRIPOS>MOLECULE
GFE
   31    32     1     0     0
SMALL
No Charge or Current Charge


@<TRIPOS>ATOM
      1 C1          -2.1360     0.6830     0.9310 c6         1 GFE       0.490400
      2 C2          -3.9640    -0.4760     0.1330 ce         1 GFE       0.881200
      3 C3          -2.1550    -0.7950    -0.9860 c2         1 GFE       0.911100
      4 C4          -0.0330    -0.1350    -0.0970 ca         1 GFE       0.280000
      5 C5           0.8080     0.8950    -0.5540 ca         1 GFE      -0.119000
      6 C6           2.2050     0.7580    -0.4860 ca         1 GFE       0.117000
      7 N1          -3.5670     0.5500     0.7400 n2         1 GFE      -0.778900
      8 N2          -5.2150    -0.5860    -0.1990 nv         1 GFE      -1.010200
      9 N3          -3.3990    -0.9580    -0.9750 ne         1 GFE      -0.901000
     10 N4          -1.6310    -0.9940    -2.1640 nv         1 GFE      -1.051200
     11 N5          -1.4360     0.0050    -0.1720 nh         1 GFE      -0.861400
     12 Cl1          3.2200     2.0790    -1.0650 cl         1 GFE      -0.163000
     13 C7           2.7740    -0.4210     0.0360 ca         1 GFE       0.117000
     14 Cl2          4.5230    -0.6250     0.1360 cl         1 GFE      -0.163000
     15 C8           1.9390    -1.4590     0.4830 ca         1 GFE      -0.093000
     16 C9           0.5410    -1.3160     0.4120 ca         1 GFE      -0.089000
     17 C10         -1.8130     2.2010     0.9500 c3         1 GFE      -0.103600
     18 C11         -1.7770     0.0640     2.3120 c3         1 GFE      -0.103600
     19 H2           0.3770     1.8020    -0.9650 ha         1 GFE       0.140000
     20 H5          -5.6700     0.3020    -0.0690 hn         1 GFE       0.474500
     21 H6          -5.2190    -0.9190    -1.1490 hn         1 GFE       0.474500
     22 H8          -1.0640    -0.1950    -2.3840 hn         1 GFE       0.499000
     23 H9          -2.4040    -1.1230    -2.7960 hn         1 GFE       0.499000
     24 H10          2.3730    -2.3720     0.8820 ha         1 GFE       0.138000
     25 H11         -0.1010    -2.1210     0.7570 ha         1 GFE       0.141000
     26 H12         -2.4130     2.7250     1.7030 hc         1 GFE       0.045867
     27 H13         -0.7610     2.3880     1.1910 hc         1 GFE       0.045867
     28 H14         -2.0230     2.6640    -0.0210 hc         1 GFE       0.045867
     29 H15         -1.9790    -1.0130     2.3320 hc         1 GFE       0.045867
     30 H16         -0.7200     0.2100     2.5590 hc         1 GFE       0.045867
     31 H17         -2.3620     0.5250     3.1170 hc         1 GFE       0.045867
@<TRIPOS>BOND
     1     1     7 1   
     2     1    11 1   
     3     1    17 1   
     4     1    18 1   
     5     2     7 2   
     6     2     8 1   
     7     2     9 1   
     8     3     9 2   
     9     3    10 1   
    10     3    11 1   
    11     4     5 ar  
    12     4    11 1   
    13     4    16 ar  
    14     5     6 ar  
    15     5    19 1   
    16     6    12 1   
    17     6    13 ar  
    18     8    20 1   
    19     8    21 1   
    20    10    22 1   
    21    10    23 1   
    22    13    14 1   
    23    13    15 ar  
    24    15    16 ar  
    25    15    24 1   
    26    16    25 1   
    27    17    26 1   
    28    17    27 1   
    29    17    28 1   
    30    18    29 1   
    31    18    30 1   
    32    18    31 1   
@<TRIPOS>SUBSTRUCTURE
     1 GFE         1 TEMP              0 ****  ****    0 ROOT
