@<TRIPOS>MOLECULE
GFE
   31    32     1     0     0
SMALL
bcc


@<TRIPOS>ATOM
      1 C1          -2.1620     0.5960     1.0110 c6         1 GFE       0.490400
      2 C2          -4.0470    -0.2120    -0.0830 ce         1 GFE       0.881200
      3 C3          -2.1020    -0.3920    -1.2190 c2         1 GFE       0.911100
      4 C4          -0.0150    -0.2420    -0.0320 ca         1 GFE       0.141600
      5 C5           0.8080     0.8000    -0.4400 ca         1 GFE      -0.137000
      6 C6           2.1870     0.6650    -0.3760 ca         1 GFE       0.025400
      7 N1          -3.5310     0.1700     1.0330 n2         1 GFE      -0.778900
      8 N2          -5.3670    -0.5620    -0.1230 nv         1 GFE      -0.899800
      9 N3          -3.4080    -0.3780    -1.2830 ne         1 GFE      -0.901000
     10 N4          -1.4110    -0.7670    -2.3080 nv         1 GFE      -0.940800
     11 N5          -1.4220    -0.1070    -0.0830 nh         1 GFE      -0.723000
     12 CL1          3.1840     1.9710    -0.8830 cl         1 GFE      -0.071400
     13 C7           2.7490    -0.5180     0.0900 ca         1 GFE       0.025400
     14 CL2          4.4570    -0.7020     0.1750 cl         1 GFE      -0.071400
     15 C8           1.9270    -1.5620     0.4870 ca         1 GFE      -0.111000
     16 C9           0.5520    -1.4270     0.4240 ca         1 GFE      -0.107000
     17 C10         -2.0880     2.1100     0.7830 c3         1 GFE      -0.103600
     18 C11         -1.5310     0.2420     2.3530 c3         1 GFE      -0.103600
     19 H2           0.3800     1.7180    -0.8180 ha         1 GFE       0.158000
     20 H5          -5.9570    -0.1910     0.6020 hn         1 GFE       0.419300
     21 H6          -5.7900    -0.6080    -1.0340 hn         1 GFE       0.419300
     22 H8          -0.4350    -0.5530    -2.4260 hn         1 GFE       0.443800
     23 H9          -1.9400    -0.9370    -3.1460 hn         1 GFE       0.443800
     24 H10          2.3650    -2.4830     0.8460 ha         1 GFE       0.156000
     25 H11         -0.0840    -2.2460     0.7340 ha         1 GFE       0.159000
     26 H12         -2.6790     2.6220     1.5430 hc         1 GFE       0.045867
     27 H13         -1.0650     2.4830     0.8530 hc         1 GFE       0.045867
     28 H14         -2.4910     2.3770    -0.1950 hc         1 GFE       0.045867
     29 H15         -1.5530    -0.8350     2.5230 hc         1 GFE       0.045867
     30 H16         -0.5020     0.5900     2.4420 hc         1 GFE       0.045867
     31 H17         -2.1110     0.7210     3.1420 hc         1 GFE       0.045867
@<TRIPOS>BOND
     1     1     7 1   
     2     1    11 1   
     3     1    17 1   
     4     1    18 1   
     5     2     7 2   
     6     2     8 1   
     7     2     9 1   
     8     3     9 2   
     9     3    10 1   
    10     3    11 1   
    11     4     5 ar  
    12     4    11 1   
    13     4    16 ar  
    14     5     6 ar  
    15     5    19 1   
    16     6    12 1   
    17     6    13 ar  
    18     8    20 1   
    19     8    21 1   
    20    10    22 1   
    21    10    23 1   
    22    13    14 1   
    23    13    15 ar  
    24    15    16 ar  
    25    15    24 1   
    26    16    25 1   
    27    17    26 1   
    28    17    27 1   
    29    17    28 1   
    30    18    29 1   
    31    18    30 1   
    32    18    31 1   
@<TRIPOS>SUBSTRUCTURE
     1 GFE         1 TEMP              0 ****  ****    0 ROOT
