@<TRIPOS>MOLECULE
GFF
   45    47     1     0     0
SMALL
No Charge or Current Charge


@<TRIPOS>ATOM
      1 P1           1.6100    -0.4510    -4.5640 p5         1 GFF       1.481800
      2 O1A          1.2570    -1.7770    -5.1520 o          1 GFF      -0.874500
      3 O2A          2.6680     0.2570    -5.3440 o          1 GFF      -0.874500
      4 O3A          0.3860     0.4580    -4.1770 os         1 GFF      -0.711800
      5 O5           2.1360    -0.6670    -3.0570 os         1 GFF      -0.601400
      6 P2          -0.3860     1.0170    -5.4360 p5         1 GFF       1.514400
      7 O1B         -0.7730     0.0170    -6.4810 o          1 GFF      -0.875500
      8 O2B          0.3640     2.1490    -6.0750 o          1 GFF      -0.875500
      9 C3B         -1.8680     1.7940    -4.6660 c3         1 GFF      -0.494000
     10 F1B         -2.7160     2.2700    -5.6240 f          1 GFF      -0.183000
     11 F2B         -1.5320     2.8540    -3.8740 f          1 GFF      -0.183000
     12 P3          -2.6340     0.4400    -3.6930 p5         1 GFF       1.369500
     13 O1G         -2.7010    -0.8640    -4.4110 o          1 GFF      -0.947500
     14 O2G         -4.0310     0.8790    -3.3920 o          1 GFF      -0.947500
     15 O3G         -1.9400     0.2850    -2.3810 o          1 GFF      -0.947500
     16 C5           1.4070    -1.5700    -2.2040 c3         1 GFF       0.189600
     17 C4           2.0540    -1.6270    -0.7820 c5         1 GFF       0.176300
     18 O4           2.5890    -0.3380    -0.3770 os         1 GFF      -0.429000
     19 C1           1.6320     0.3320     0.4740 c5         1 GFF       0.322300
     20 N9           1.4060     1.6910    -0.0110 na         1 GFF      -0.169500
     21 C9           1.8220     2.8550     0.5880 cc         1 GFF       0.040400
     22 N3           2.5580     3.0090     1.7490 nc         1 GFF      -0.646100
     23 C2           2.7930     4.2660     2.0530 cd         1 GFF       0.632800
     24 N2           3.4880     4.4790     3.1610 nv         1 GFF      -1.069200
     25 N1           2.3950     5.3610     1.3660 ns         1 GFF      -0.459400
     26 C6           1.6640     5.3000     0.2120 c          1 GFF       0.513500
     27 O6           1.3180     6.3100    -0.3880 o          1 GFF      -0.573000
     28 C7           1.3610     3.8910    -0.1900 cd         1 GFF       0.131500
     29 N7           0.6510     3.3870    -1.2720 nd         1 GFF      -0.603000
     30 C8           0.6870     2.0570    -1.1360 cc         1 GFF       0.536400
     31 C10          0.4020    -0.6120     0.5980 c5         1 GFF      -0.175400
     32 C3           1.0470    -2.0000     0.3570 c5         1 GFF       0.116300
     33 O3           1.6890    -2.4860     1.5460 oh         1 GFF      -0.751000
     34 HN21         3.5930     3.6690     3.7610 hn         1 GFF       0.462500
     35 HN22         3.3770     5.3710     3.6270 hn         1 GFF       0.462500
     36 HN1          2.6480     6.2800     1.6920 hn         1 GFF       0.276500
     37 H8           0.2420     1.3280    -1.8040 h5         1 GFF       0.200100
     38 H1           2.0860     0.4400     1.4660 h2         1 GFF       0.031700
     39 H2'1        -0.3670    -0.3900    -0.1480 hc         1 GFF       0.105200
     40 H2'2        -0.0800    -0.5270     1.5770 hc         1 GFF       0.105200
     41 H3           0.3050    -2.7320     0.0050 h1         1 GFF       0.070700
     42 H6           0.9780    -2.7710     2.1650 ho         1 GFF       0.466000
     43 H4           2.8840    -2.3440    -0.8270 h1         1 GFF       0.039700
     44 H5'1         0.3590    -1.2540    -2.1200 h1         1 GFF       0.072200
     45 H5'2         1.4030    -2.5880    -2.6180 h1         1 GFF       0.072200
@<TRIPOS>BOND
     1     1     2 1   
     2     1     3 1   
     3     1     4 1   
     4     1     5 1   
     5     4     6 1   
     6     5    16 1   
     7     6     7 1   
     8     6     8 1   
     9     6     9 1   
    10     9    10 1   
    11     9    11 1   
    12     9    12 1   
    13    12    13 1   
    14    12    14 1   
    15    12    15 1   
    16    16    17 1   
    17    16    44 1   
    18    16    45 1   
    19    17    18 1   
    20    17    32 1   
    21    17    43 1   
    22    18    19 1   
    23    19    20 1   
    24    19    31 1   
    25    19    38 1   
    26    20    21 1   
    27    20    30 1   
    28    21    22 1   
    29    21    28 2   
    30    22    23 2   
    31    23    24 1   
    32    23    25 1   
    33    24    34 1   
    34    24    35 1   
    35    25    26 1   
    36    25    36 1   
    37    26    27 2   
    38    26    28 1   
    39    28    29 1   
    40    29    30 2   
    41    30    37 1   
    42    31    32 1   
    43    31    39 1   
    44    31    40 1   
    45    32    33 1   
    46    32    41 1   
    47    33    42 1   
@<TRIPOS>SUBSTRUCTURE
     1 GFF         1 TEMP              0 ****  ****    0 ROOT
