@<TRIPOS>MOLECULE
GFF
   45    47     1     0     0
SMALL
bcc


@<TRIPOS>ATOM
      1 P1           1.8470    -0.9430    -4.7860 p5         1 GFF       1.481800
      2 O1A          1.2300    -2.2350    -5.2200 o          1 GFF      -0.874500
      3 O2A          3.0120    -0.3660    -5.5300 o          1 GFF      -0.874500
      4 O3A          0.7020     0.2030    -4.5680 os         1 GFF      -0.711800
      5 O5           2.3350    -1.0630    -3.2230 os         1 GFF      -0.578200
      6 P2          -0.2690     0.9130    -5.6870 p5         1 GFF       1.356600
      7 O1B         -0.8480    -0.1080    -6.6200 o          1 GFF      -0.875500
      8 O2B          0.4550     2.1000    -6.2660 o          1 GFF      -0.875500
      9 C3B         -1.5770     1.5580    -4.5380 c3         1 GFF       0.064200
     10 F1B         -2.4970     2.1470    -5.4120 f          1 GFF      -0.304300
     11 F2B         -1.0230     2.6300    -3.8570 f          1 GFF      -0.304300
     12 P3          -2.5560     0.5060    -3.3220 p5         1 GFF       1.211700
     13 O1G         -3.0900    -0.6420    -4.1680 o          1 GFF      -0.947500
     14 O2G         -3.6240     1.4810    -2.8280 o          1 GFF      -0.947500
     15 O3G         -1.5520     0.0900    -2.2410 o          1 GFF      -0.947500
     16 C5           1.4070    -1.5530    -2.2730 c3         1 GFF       0.166400
     17 C4           2.0140    -1.4270    -0.8910 c5         1 GFF       0.153100
     18 O4           2.3620    -0.0760    -0.5960 os         1 GFF      -0.382600
     19 C1           1.5130     0.4480     0.3990 c5         1 GFF       0.269800
     20 N9           1.1510     1.8020     0.0650 na         1 GFF      -0.190900
     21 C9           1.6360     2.9210     0.6700 cc         1 GFF       0.025800
     22 N3           2.4700     2.9610     1.7210 nc         1 GFF      -0.646100
     23 C2           2.7560     4.1780     2.1060 cd         1 GFF       0.632800
     24 N2           3.6120     4.3770     3.1230 nv         1 GFF      -0.958800
     25 N1           2.2520     5.2900     1.4950 ns         1 GFF      -0.526400
     26 C6           1.3800     5.3050     0.3980 c          1 GFF       0.656000
     27 O6           0.9890     6.3650    -0.0650 o          1 GFF      -0.648500
     28 C7           1.0750     3.9790    -0.0180 cd         1 GFF       0.196800
     29 N7           0.2710     3.5240    -1.0320 nd         1 GFF      -0.603000
     30 C8           0.3370     2.2280    -0.9640 cc         1 GFF       0.536400
     31 C10          0.3420    -0.5180     0.5010 c5         1 GFF      -0.175400
     32 C3           1.0220    -1.8440     0.1930 c5         1 GFF       0.093100
     33 O3           1.7550    -2.3430     1.2900 oh         1 GFF      -0.628800
     34 HN21         3.8400     3.5800     3.6930 hn         1 GFF       0.407300
     35 HN22         3.6640     5.2720     3.5790 hn         1 GFF       0.407300
     36 HN1          2.5160     6.1980     1.8570 hn         1 GFF       0.276500
     37 H8          -0.2050     1.5280    -1.5980 h5         1 GFF       0.200100
     38 H1           2.0460     0.5120     1.3520 h2         1 GFF       0.031700
     39 H2'1        -0.4170    -0.3080    -0.2550 hc         1 GFF       0.105200
     40 H2'2        -0.1330    -0.4920     1.4840 hc         1 GFF       0.105200
     41 H3           0.3090    -2.5900    -0.1810 h1         1 GFF       0.070700
     42 H6           1.1440    -2.4740     2.0220 ho         1 GFF       0.367000
     43 H4           2.9240    -2.0360    -0.8360 h1         1 GFF       0.039700
     44 H5'1         0.4560    -1.0110    -2.3320 h1         1 GFF       0.072200
     45 H5'2         1.2000    -2.6160    -2.4470 h1         1 GFF       0.072200
@<TRIPOS>BOND
     1     1     2 1   
     2     1     3 1   
     3     1     4 1   
     4     1     5 1   
     5     4     6 1   
     6     5    16 1   
     7     6     7 1   
     8     6     8 1   
     9     6     9 1   
    10     9    10 1   
    11     9    11 1   
    12     9    12 1   
    13    12    13 1   
    14    12    14 1   
    15    12    15 1   
    16    16    17 1   
    17    16    44 1   
    18    16    45 1   
    19    17    18 1   
    20    17    32 1   
    21    17    43 1   
    22    18    19 1   
    23    19    20 1   
    24    19    31 1   
    25    19    38 1   
    26    20    21 1   
    27    20    30 1   
    28    21    22 1   
    29    21    28 2   
    30    22    23 2   
    31    23    24 1   
    32    23    25 1   
    33    24    34 1   
    34    24    35 1   
    35    25    26 1   
    36    25    36 1   
    37    26    27 2   
    38    26    28 1   
    39    28    29 1   
    40    29    30 2   
    41    30    37 1   
    42    31    32 1   
    43    31    39 1   
    44    31    40 1   
    45    32    33 1   
    46    32    41 1   
    47    33    42 1   
@<TRIPOS>SUBSTRUCTURE
     1 GFF         1 TEMP              0 ****  ****    0 ROOT
