@<TRIPOS>MOLECULE
GFG
   66    68     1     0     0
SMALL
bcc


@<TRIPOS>ATOM
      1 O63         -3.4070    -0.5920    -0.3500 oh         1 GFG      -0.598800
      2 C63         -3.2630    -1.1640    -1.6410 c3         1 GFG       0.102400
      3 C53         -2.4260    -0.2790    -2.5640 c6         1 GFG       0.097100
      4 O53         -1.1580     0.0380    -2.0250 os         1 GFG      -0.409600
      5 C43         -2.3210    -0.8480    -3.9860 c6         1 GFG       0.098100
      6 O43         -2.0140     0.1560    -4.9230 oh         1 GFG      -0.558800
      7 C33         -1.2370    -1.9310    -4.1000 c6         1 GFG       0.146100
      8 O33         -1.6500    -3.1290    -3.4820 oh         1 GFG      -0.606800
      9 C23          0.0670    -1.5270    -3.4140 c6         1 GFG       0.146100
     10 O23          0.6970    -0.5570    -4.2050 oh         1 GFG      -0.565800
     11 C13         -0.2290    -1.0060    -2.0080 c6         1 GFG       0.311900
     12 O13          0.9660    -0.5080    -1.5110 os         1 GFG      -0.415600
     13 C32          0.9710     0.0180    -0.2060 c5         1 GFG       0.074100
     14 C42          2.2920    -0.3150     0.4780 c5         1 GFG       0.110100
     15 O42          2.3510    -1.5810     1.0680 oh         1 GFG      -0.579800
     16 C52          2.3720     0.7800     1.5260 c5         1 GFG       0.106100
     17 O52          1.8520     1.9200     0.8630 os         1 GFG      -0.445600
     18 C62          3.7810     1.0770     1.9940 c3         1 GFG       0.145400
     19 O62          3.8410     2.1030     2.9560 oh         1 GFG      -0.588800
     20 C22          0.9280     1.5680    -0.1500 c5         1 GFG       0.308600
     21 C12          1.4190     2.2080    -1.4530 c3         1 GFG       0.159400
     22 O12          1.6180     3.5900    -1.3130 oh         1 GFG      -0.572800
     23 O1          -0.3180     2.1470     0.1040 os         1 GFG      -0.389600
     24 C1          -1.0760     1.7890     1.2140 c6         1 GFG       0.305900
     25 C2          -2.4570     2.4560     1.0780 c6         1 GFG       0.115100
     26 O2          -3.0680     2.2080    -0.1510 oh         1 GFG      -0.574800
     27 C3          -2.3380     3.9670     1.2760 c6         1 GFG       0.119100
     28 O3          -3.5940     4.5980     1.2500 oh         1 GFG      -0.568800
     29 C4          -1.5870     4.2850     2.5750 c6         1 GFG       0.087100
     30 O4          -2.3910     4.0030     3.7030 oh         1 GFG      -0.596800
     31 C5          -0.2580     3.5400     2.5920 c6         1 GFG       0.112100
     32 O5          -0.4910     2.1470     2.4340 os         1 GFG      -0.441600
     33 C6           0.5240     3.6880     3.8850 c3         1 GFG       0.143400
     34 O6           0.7810     5.0590     4.0790 oh         1 GFG      -0.598800
     35 HO63        -2.7420    -0.9710     0.2300 ho         1 GFG       0.407000
     36 H631        -2.8630    -2.1750    -1.5630 h1         1 GFG       0.055200
     37 H632        -4.2610    -1.2510    -2.0780 h1         1 GFG       0.055200
     38 H53         -2.9430     0.6840    -2.6330 h1         1 GFG       0.100700
     39 H43         -3.2850    -1.3160    -4.2360 h1         1 GFG       0.027700
     40 HO43        -2.7710     0.7460    -4.9870 ho         1 GFG       0.410000
     41 H33         -1.0310    -2.0910    -5.1670 h1         1 GFG       0.078700
     42 HO33        -2.4180    -3.4700    -3.9520 ho         1 GFG       0.415000
     43 H23          0.6890    -2.4300    -3.3160 h1         1 GFG       0.054700
     44 HO23         1.4890    -0.2640    -3.7440 ho         1 GFG       0.421000
     45 H13         -0.5870    -1.8360    -1.3740 h2         1 GFG       0.032700
     46 H32          0.1620    -0.4270     0.3880 h1         1 GFG       0.064700
     47 H42          3.1060    -0.1720    -0.2480 h1         1 GFG       0.055700
     48 HO42         2.4890    -2.2370     0.3780 ho         1 GFG       0.418000
     49 H52          1.7450     0.5190     2.3910 h1         1 GFG       0.083700
     50 H621         4.4080     1.3040     1.1210 h1         1 GFG       0.051700
     51 H622         4.1870     0.1770     2.4590 h1         1 GFG       0.051700
     52 HO62         3.5870     2.9280     2.5300 ho         1 GFG       0.413000
     53 H121         0.6750     2.0620    -2.2360 h1         1 GFG       0.065200
     54 H122         2.3370     1.6990    -1.7720 h1         1 GFG       0.065200
     55 HO12         2.3110     3.7280    -0.6600 ho         1 GFG       0.404000
     56 H1          -1.2030     0.7020     1.2820 h2         1 GFG       0.048700
     57 H2          -3.0620     2.0430     1.9030 h1         1 GFG       0.027700
     58 HO2         -3.2180     1.2520    -0.2380 ho         1 GFG       0.424000
     59 H3          -1.7660     4.3830     0.4390 h1         1 GFG       0.107700
     60 HO3         -4.0320     4.4050     2.0870 ho         1 GFG       0.406000
     61 H4          -1.3910     5.3610     2.6050 h1         1 GFG       0.108700
     62 HO4         -2.3840     3.0540     3.8700 ho         1 GFG       0.404000
     63 H5           0.3570     3.9230     1.7710 h1         1 GFG       0.081700
     64 H61          1.4510     3.1090     3.7940 h1         1 GFG       0.035700
     65 H62         -0.0430     3.2560     4.7190 h1         1 GFG       0.035700
     66 HO6          1.2790     5.1570     4.8950 ho         1 GFG       0.411000
@<TRIPOS>BOND
     1     1     2 1   
     2     1    35 1   
     3     2     3 1   
     4     2    36 1   
     5     2    37 1   
     6     3     4 1   
     7     3     5 1   
     8     3    38 1   
     9     4    11 1   
    10     5     6 1   
    11     5     7 1   
    12     5    39 1   
    13     6    40 1   
    14     7     8 1   
    15     7     9 1   
    16     7    41 1   
    17     8    42 1   
    18     9    10 1   
    19     9    11 1   
    20     9    43 1   
    21    10    44 1   
    22    11    12 1   
    23    11    45 1   
    24    12    13 1   
    25    13    14 1   
    26    13    20 1   
    27    13    46 1   
    28    14    15 1   
    29    14    16 1   
    30    14    47 1   
    31    15    48 1   
    32    16    17 1   
    33    16    18 1   
    34    16    49 1   
    35    17    20 1   
    36    18    19 1   
    37    18    50 1   
    38    18    51 1   
    39    19    52 1   
    40    20    21 1   
    41    20    23 1   
    42    21    22 1   
    43    21    53 1   
    44    21    54 1   
    45    22    55 1   
    46    23    24 1   
    47    24    25 1   
    48    24    32 1   
    49    24    56 1   
    50    25    26 1   
    51    25    27 1   
    52    25    57 1   
    53    26    58 1   
    54    27    28 1   
    55    27    29 1   
    56    27    59 1   
    57    28    60 1   
    58    29    30 1   
    59    29    31 1   
    60    29    61 1   
    61    30    62 1   
    62    31    32 1   
    63    31    33 1   
    64    31    63 1   
    65    33    34 1   
    66    33    64 1   
    67    33    65 1   
    68    34    66 1   
@<TRIPOS>SUBSTRUCTURE
     1 GFG         1 TEMP              0 ****  ****    0 ROOT
