@<TRIPOS>MOLECULE
GFG
   66    68     1     0     0
SMALL
No Charge or Current Charge


@<TRIPOS>ATOM
      1 O63         -2.8670     1.9140    -2.2430 oh         1 GFG      -0.721000
      2 C63         -2.9690     0.4730    -2.1850 c3         1 GFG       0.125600
      3 C53         -1.9710    -0.2510    -3.1610 c6         1 GFG       0.120300
      4 O53         -0.5900     0.0520    -2.8130 os         1 GFG      -0.456000
      5 C43         -2.1690    -1.8010    -3.3190 c6         1 GFG       0.121300
      6 O43         -1.4610    -2.2530    -4.4970 oh         1 GFG      -0.681000
      7 C33         -1.6210    -2.5770    -2.0660 c6         1 GFG       0.169300
      8 O33         -2.4370    -2.3410    -0.9010 oh         1 GFG      -0.669000
      9 C23         -0.1380    -2.1560    -1.7980 c6         1 GFG       0.169300
     10 O23          0.6950    -2.5950    -2.8980 oh         1 GFG      -0.688000
     11 C13         -0.0960    -0.5960    -1.6150 c6         1 GFG       0.358300
     12 O13          1.2560    -0.1370    -1.3840 os         1 GFG      -0.462000
     13 C32          1.5020     0.7590    -0.2560 c5         1 GFG       0.097300
     14 C42          3.0460     0.8210    -0.0650 c5         1 GFG       0.133300
     15 O42          3.5580    -0.2650     0.7210 oh         1 GFG      -0.702000
     16 C52          3.1500     2.2020     0.6260 c5         1 GFG       0.129300
     17 O52          2.3640     3.0150    -0.2700 os         1 GFG      -0.492000
     18 C62          4.5870     2.7710     0.7410 c3         1 GFG       0.168600
     19 O62          4.5580     4.0810     1.3330 oh         1 GFG      -0.711000
     20 C22          1.1340     2.2920    -0.5360 c5         1 GFG       0.355000
     21 C12          0.6870     2.6870    -1.9830 c3         1 GFG       0.182600
     22 O12          0.7810     4.1160    -2.1730 oh         1 GFG      -0.695000
     23 O1           0.1820     2.7670     0.4550 os         1 GFG      -0.436000
     24 C1          -1.0570     2.0490     0.6420 c6         1 GFG       0.352300
     25 C2          -2.2990     2.9940     0.7950 c6         1 GFG       0.138300
     26 O2          -2.4620     3.8540    -0.3550 oh         1 GFG      -0.697000
     27 C3          -2.2060     3.7940     2.1410 c6         1 GFG       0.142300
     28 O3          -3.4120     4.5400     2.3960 oh         1 GFG      -0.631000
     29 C4          -1.9750     2.8130     3.3350 c6         1 GFG       0.110300
     30 O4          -3.1560     1.9900     3.5110 oh         1 GFG      -0.719000
     31 C5          -0.7160     1.9400     3.0370 c6         1 GFG       0.135300
     32 O5          -0.9260     1.2020     1.8060 os         1 GFG      -0.488000
     33 C6          -0.3720     0.9150     4.1620 c3         1 GFG       0.166600
     34 O6          -0.0620     1.5550     5.4130 oh         1 GFG      -0.721000
     35 HO63        -3.1250     2.1800    -3.1590 ho         1 GFG       0.506000
     36 H631        -2.7990     0.1290    -1.1580 h1         1 GFG       0.055200
     37 H632        -3.9880     0.1620    -2.4540 h1         1 GFG       0.055200
     38 H53         -2.1570     0.1900    -4.1500 h1         1 GFG       0.100700
     39 H43         -3.2410    -2.0190    -3.4310 h1         1 GFG       0.027700
     40 HO43        -2.0590    -2.1160    -5.2710 ho         1 GFG       0.509000
     41 H33         -1.6280    -3.6530    -2.2980 h1         1 GFG       0.078700
     42 HO33        -3.2060    -2.9530    -0.9560 ho         1 GFG       0.454000
     43 H23          0.1990    -2.6240    -0.8620 h1         1 GFG       0.054700
     44 HO23         0.1250    -2.4200    -3.6970 ho         1 GFG       0.520000
     45 H13         -0.7230    -0.3390    -0.7520 h2         1 GFG       0.032700
     46 H32          1.0260     0.3580     0.6460 h1         1 GFG       0.064700
     47 H42          3.5540     0.8560    -1.0410 h1         1 GFG       0.055700
     48 HO42         3.3700    -1.0900     0.2140 ho         1 GFG       0.517000
     49 H52          2.6830     2.1880     1.6210 h1         1 GFG       0.083700
     50 H621         5.0350     2.8090    -0.2620 h1         1 GFG       0.051700
     51 H622         5.1920     2.0870     1.3500 h1         1 GFG       0.051700
     52 HO62         3.8250     4.5600     0.8790 ho         1 GFG       0.512000
     53 H121        -0.3420     2.3580    -2.1460 h1         1 GFG       0.065200
     54 H122         1.3280     2.1620    -2.7040 h1         1 GFG       0.065200
     55 HO12         1.4400     4.4030    -1.4960 ho         1 GFG       0.503000
     56 H1          -1.2420     1.4240    -0.2380 h2         1 GFG       0.048700
     57 H2          -3.1810     2.3400     0.8560 h1         1 GFG       0.027700
     58 HO2         -2.6220     3.2330    -1.1200 ho         1 GFG       0.523000
     59 H3          -1.3410     4.4730     2.0740 h1         1 GFG       0.107700
     60 HO3         -4.0010     3.8970     2.8540 ho         1 GFG       0.445000
     61 H4          -1.7780     3.4070     4.2420 h1         1 GFG       0.108700
     62 HO4         -2.9880     1.1570     3.0130 ho         1 GFG       0.503000
     63 H5           0.1610     2.5950     2.9230 h1         1 GFG       0.081700
     64 H61          0.4860     0.3180     3.8240 h1         1 GFG       0.035700
     65 H62         -1.2190     0.2270     4.2870 h1         1 GFG       0.035700
     66 HO6          0.1310     0.8390     6.0640 ho         1 GFG       0.510000
@<TRIPOS>BOND
     1     1     2 1   
     2     1    35 1   
     3     2     3 1   
     4     2    36 1   
     5     2    37 1   
     6     3     4 1   
     7     3     5 1   
     8     3    38 1   
     9     4    11 1   
    10     5     6 1   
    11     5     7 1   
    12     5    39 1   
    13     6    40 1   
    14     7     8 1   
    15     7     9 1   
    16     7    41 1   
    17     8    42 1   
    18     9    10 1   
    19     9    11 1   
    20     9    43 1   
    21    10    44 1   
    22    11    12 1   
    23    11    45 1   
    24    12    13 1   
    25    13    14 1   
    26    13    20 1   
    27    13    46 1   
    28    14    15 1   
    29    14    16 1   
    30    14    47 1   
    31    15    48 1   
    32    16    17 1   
    33    16    18 1   
    34    16    49 1   
    35    17    20 1   
    36    18    19 1   
    37    18    50 1   
    38    18    51 1   
    39    19    52 1   
    40    20    21 1   
    41    20    23 1   
    42    21    22 1   
    43    21    53 1   
    44    21    54 1   
    45    22    55 1   
    46    23    24 1   
    47    24    25 1   
    48    24    32 1   
    49    24    56 1   
    50    25    26 1   
    51    25    27 1   
    52    25    57 1   
    53    26    58 1   
    54    27    28 1   
    55    27    29 1   
    56    27    59 1   
    57    28    60 1   
    58    29    30 1   
    59    29    31 1   
    60    29    61 1   
    61    30    62 1   
    62    31    32 1   
    63    31    33 1   
    64    31    63 1   
    65    33    34 1   
    66    33    64 1   
    67    33    65 1   
    68    34    66 1   
@<TRIPOS>SUBSTRUCTURE
     1 GFG         1 TEMP              0 ****  ****    0 ROOT
