@<TRIPOS>MOLECULE
GFH
   45    47     1     0     0
SMALL
No Charge or Current Charge


@<TRIPOS>ATOM
      1 PA           1.1540    -1.3630    -1.5910 p5         1 GFH       1.467800
      2 O1A         -0.0390    -0.7610    -2.2580 o          1 GFH      -0.870500
      3 O2A          2.3210    -1.4700    -2.5180 o          1 GFH      -0.870500
      4 O3A          1.5020    -0.7360    -0.1900 os         1 GFH      -0.717800
      5 O5           0.7950    -2.8460    -1.0660 os         1 GFH      -0.581400
      6 PB           2.3580     0.5920    -0.2840 p5         1 GFH       1.501400
      7 O1B          1.7910     1.5570    -1.2820 o          1 GFH      -0.864500
      8 O2B          3.8200     0.3630    -0.5140 o          1 GFH      -0.864500
      9 C3B          1.9600     1.2910     1.3650 c3         1 GFH      -0.481700
     10 F3B          2.0180     2.6660     1.4390 f          1 GFH      -0.318000
     11 PG           3.1140     0.4310     2.4840 p5         1 GFH       1.349500
     12 O1G          4.4640     1.0670     2.4270 o          1 GFH      -0.957500
     13 O2G          2.5870     0.6630     3.8630 o          1 GFH      -0.957500
     14 O3G          3.2090    -1.0390     2.2620 o          1 GFH      -0.957500
     15 C5          -0.5170    -3.2000    -0.5990 c3         1 GFH       0.242600
     16 C4          -0.8880    -2.5050     0.7530 c5         1 GFH       0.140300
     17 O4          -1.4040    -1.1620     0.5360 os         1 GFH      -0.347000
     18 C1          -2.8480    -1.1760     0.5800 c5         1 GFH       0.328300
     19 N9          -3.3900    -0.3970    -0.5300 na         1 GFH      -0.162500
     20 C9          -4.1280     0.7570    -0.4380 cc         1 GFH       0.089400
     21 N3          -4.4740     1.4630     0.6990 nc         1 GFH      -0.662100
     22 C2          -5.1980     2.5290     0.4450 cd         1 GFH       0.666800
     23 N2          -5.5660     3.2440     1.4970 nv         1 GFH      -1.061200
     24 N1          -5.6160     2.9630    -0.7640 ns         1 GFH      -0.452400
     25 C6          -5.3260     2.3220    -1.9360 c          1 GFH       0.528500
     26 O6          -5.7220     2.7400    -3.0170 o          1 GFH      -0.578000
     27 C7          -4.4970     1.0950    -1.7190 cd         1 GFH       0.146500
     28 N7          -3.9980     0.1610    -2.6180 nd         1 GFH      -0.610000
     29 C8          -3.3300    -0.7220    -1.8720 cc         1 GFH       0.506400
     30 C10         -3.2610    -2.6690     0.6850 c5         1 GFH      -0.178400
     31 C3          -2.0640    -3.2340     1.4850 c5         1 GFH       0.117300
     32 O3          -2.1620    -2.8970     2.8720 oh         1 GFH      -0.709000
     33 H3B          0.9410     0.9790     1.6190 h1         1 GFH       0.015700
     34 H5'1        -1.2720    -2.9740    -1.3620 h1         1 GFH      -0.006300
     35 H5'2        -0.5460    -4.2860    -0.4410 h1         1 GFH      -0.006300
     36 H4           0.0090    -2.4610     1.3840 h1         1 GFH       0.090700
     37 H1          -3.1630    -0.6590     1.4940 h2         1 GFH       0.080700
     38 HN21        -5.4170     2.7880     2.3900 hn         1 GFH       0.464000
     39 HN22        -6.4030     3.8080     1.4170 hn         1 GFH       0.464000
     40 HN1         -6.1610     3.8070    -0.8350 hn         1 GFH       0.282500
     41 H8          -2.7990    -1.5950    -2.2350 h5         1 GFH       0.153100
     42 H2'1        -4.2210    -2.7990     1.1990 hc         1 GFH       0.047200
     43 H2'2        -3.3560    -3.1460    -0.2970 hc         1 GFH       0.047200
     44 H3          -1.9900    -4.3250     1.3780 h1         1 GFH       0.019700
     45 HO3         -2.8730    -3.4600     3.2550 ho         1 GFH       0.465000
@<TRIPOS>BOND
     1     1     2 1   
     2     1     3 1   
     3     1     4 1   
     4     1     5 1   
     5     4     6 1   
     6     5    15 1   
     7     6     7 1   
     8     6     8 1   
     9     6     9 1   
    10     9    10 1   
    11     9    11 1   
    12     9    33 1   
    13    11    12 1   
    14    11    13 1   
    15    11    14 1   
    16    15    16 1   
    17    15    34 1   
    18    15    35 1   
    19    16    17 1   
    20    16    31 1   
    21    16    36 1   
    22    17    18 1   
    23    18    19 1   
    24    18    30 1   
    25    18    37 1   
    26    19    20 1   
    27    19    29 1   
    28    20    21 1   
    29    20    27 2   
    30    21    22 2   
    31    22    23 1   
    32    22    24 1   
    33    23    38 1   
    34    23    39 1   
    35    24    25 1   
    36    24    40 1   
    37    25    26 2   
    38    25    27 1   
    39    27    28 1   
    40    28    29 2   
    41    29    41 1   
    42    30    31 1   
    43    30    42 1   
    44    30    43 1   
    45    31    32 1   
    46    31    44 1   
    47    32    45 1   
@<TRIPOS>SUBSTRUCTURE
     1 GFH         1 TEMP              0 ****  ****    0 ROOT
