@<TRIPOS>MOLECULE
GFH
   45    47     1     0     0
SMALL
bcc


@<TRIPOS>ATOM
      1 PA           1.2680    -2.2480    -1.6280 p5         1 GFH       1.467800
      2 O1A          0.2450    -1.8080    -2.6380 o          1 GFH      -0.870500
      3 O2A          2.6270    -2.6870    -2.0820 o          1 GFH      -0.870500
      4 O3A          1.3950    -1.1950    -0.4050 os         1 GFH      -0.717800
      5 O5           0.6610    -3.5320    -0.7830 os         1 GFH      -0.558200
      6 PB           2.3010     0.2140    -0.3850 p5         1 GFH       1.343600
      7 O1B          2.3450     0.7530    -1.7870 o          1 GFH      -0.864500
      8 O2B          3.5800    -0.1060     0.3400 o          1 GFH      -0.864500
      9 C3B          1.2260     1.2050     0.7120 c3         1 GFH      -0.184800
     10 F3B          0.0880     1.5750    -0.0390 f          1 GFH      -0.299300
     11 PG           2.0110     2.7340     1.4600 p5         1 GFH       1.191700
     12 O1G          2.8180     3.3850     0.3330 o          1 GFH      -0.957500
     13 O2G          0.8130     3.5710     1.9220 o          1 GFH      -0.957500
     14 O3G          2.8560     2.1880     2.6140 o          1 GFH      -0.957500
     15 C5          -0.7170    -3.7680    -0.6290 c3         1 GFH       0.219400
     16 C4          -1.2580    -3.2740     0.7030 c5         1 GFH       0.117100
     17 O4          -1.2620    -1.8510     0.7850 os         1 GFH      -0.300600
     18 C1          -2.5710    -1.3540     0.7830 c5         1 GFH       0.275800
     19 N9          -2.6560    -0.2000    -0.0850 na         1 GFH      -0.183900
     20 C9          -3.4500     0.8810     0.1310 cc         1 GFH       0.074800
     21 N3          -4.2170     1.1010     1.2100 nc         1 GFH      -0.662100
     22 C2          -4.8760     2.2290     1.1520 cd         1 GFH       0.666800
     23 N2          -5.6480     2.6120     2.1840 nv         1 GFH      -0.950800
     24 N1          -4.7970     3.0830     0.0900 ns         1 GFH      -0.519400
     25 C6          -4.0250     2.8940    -1.0660 c          1 GFH       0.671000
     26 O6          -4.0390     3.7290    -1.9580 o          1 GFH      -0.653500
     27 C7          -3.3040     1.6710    -0.9940 cd         1 GFH       0.211800
     28 N7          -2.4370     1.0880    -1.8820 nd         1 GFH      -0.610000
     29 C8          -2.0650    -0.0170    -1.3100 cc         1 GFH       0.506400
     30 C10         -3.4580    -2.5130     0.3420 c5         1 GFH      -0.178400
     31 C3          -2.7100    -3.7030     0.9190 c5         1 GFH       0.094100
     32 O3          -2.9190    -3.8400     2.3080 oh         1 GFH      -0.586800
     33 H3B          0.8660     0.5600     1.5220 h1         1 GFH       0.015700
     34 H5'1        -1.2920    -3.3400    -1.4580 h1         1 GFH      -0.006300
     35 H5'2        -0.8650    -4.8530    -0.6600 h1         1 GFH      -0.006300
     36 H4          -0.6230    -3.6630     1.5070 h1         1 GFH       0.090700
     37 H1          -2.8550    -1.0020     1.7800 h2         1 GFH       0.080700
     38 HN21        -5.8620     1.9170     2.8790 hn         1 GFH       0.408800
     39 HN22        -6.3260     3.3460     2.0710 hn         1 GFH       0.408800
     40 HN1         -5.3380     3.9380     0.1190 hn         1 GFH       0.282500
     41 H8          -1.3410    -0.7150    -1.7130 h5         1 GFH       0.153100
     42 H2'1        -4.4850    -2.4180     0.6960 hc         1 GFH       0.047200
     43 H2'2        -3.4860    -2.5760    -0.7490 hc         1 GFH       0.047200
     44 H3          -2.9460    -4.6340     0.3890 h1         1 GFH       0.019700
     45 HO3         -3.8600    -3.9730     2.4600 ho         1 GFH       0.366000
@<TRIPOS>BOND
     1     1     2 1   
     2     1     3 1   
     3     1     4 1   
     4     1     5 1   
     5     4     6 1   
     6     5    15 1   
     7     6     7 1   
     8     6     8 1   
     9     6     9 1   
    10     9    10 1   
    11     9    11 1   
    12     9    33 1   
    13    11    12 1   
    14    11    13 1   
    15    11    14 1   
    16    15    16 1   
    17    15    34 1   
    18    15    35 1   
    19    16    17 1   
    20    16    31 1   
    21    16    36 1   
    22    17    18 1   
    23    18    19 1   
    24    18    30 1   
    25    18    37 1   
    26    19    20 1   
    27    19    29 1   
    28    20    21 1   
    29    20    27 2   
    30    21    22 2   
    31    22    23 1   
    32    22    24 1   
    33    23    38 1   
    34    23    39 1   
    35    24    25 1   
    36    24    40 1   
    37    25    26 2   
    38    25    27 1   
    39    27    28 1   
    40    28    29 2   
    41    29    41 1   
    42    30    31 1   
    43    30    42 1   
    44    30    43 1   
    45    31    32 1   
    46    31    44 1   
    47    32    45 1   
@<TRIPOS>SUBSTRUCTURE
     1 GFH         1 TEMP              0 ****  ****    0 ROOT
