@<TRIPOS>MOLECULE
GFI
   49    51     1     0     0
SMALL
abcg2


@<TRIPOS>ATOM
      1 C13        281.0920   315.1340   372.6900 c3         1 GFI      -0.035800
      2 C15        280.4640   317.3580   369.6650 ca         1 GFI      -0.195500
      3 C17        281.6580   315.3970   368.9390 ca         1 GFI      -0.215000
      4 C21        279.0450   320.1960   368.2700 cc         1 GFI       0.361300
      5 C22        278.5680   321.1690   367.2290 c3         1 GFI       0.315700
      6 C03        285.5190   307.7560   370.7440 cc         1 GFI       0.224500
      7 C04        286.4830   306.8100   371.3810 c          1 GFI       0.530600
      8 C05        285.8160   309.0530   370.2630 cc         1 GFI      -0.201000
      9 C06        284.6050   309.5410   369.9010 cd         1 GFI       0.169300
     10 C07        284.1600   310.8320   369.3210 c3         1 GFI      -0.113700
     11 C08        283.3650   311.6880   370.3100 c3         1 GFI      -0.080400
     12 C09        282.8760   312.9500   369.6320 c3         1 GFI       0.163600
     13 C11        281.6670   314.9110   370.2440 ca         1 GFI       0.174100
     14 C12        281.0770   315.6540   371.2840 ca         1 GFI      -0.116300
     15 C14        280.4890   316.8640   370.9730 ca         1 GFI      -0.035000
     16 C16        281.0550   316.6120   368.6550 ca         1 GFI      -0.021000
     17 C18        279.8240   318.6270   369.3560 cd         1 GFI       0.630500
     18 C29        287.2370   304.5510   371.7510 c3         1 GFI       0.089300
     19 C30        285.7140   304.9860   369.8880 c3         1 GFI       0.089300
     20 F24        278.7320   320.6560   366.0200 f          1 GFI      -0.084667
     21 F25        277.2800   321.4440   367.4080 f          1 GFI      -0.084667
     22 F26        279.2480   322.3100   367.3040 f          1 GFI      -0.084667
     23 N02        284.2420   307.5090   370.6890 nd         1 GFI      -0.338300
     24 N19        279.3410   319.4360   370.2550 nc         1 GFI      -0.358300
     25 N20        279.6530   319.0890   368.0740 nd         1 GFI      -0.661000
     26 N28        286.4250   305.5160   371.0370 n          1 GFI      -0.394800
     27 O01        283.6700   308.6190   370.1630 os         1 GFI      -0.066700
     28 O23        278.8220   320.4750   369.5370 os         1 GFI      -0.053700
     29 O27        287.2600   307.2670   372.2080 o          1 GFI      -0.583100
     30 H131       282.1100   314.9890   373.0540 hc         1 GFI       0.046700
     31 H132       280.5940   315.8310   373.3630 hc         1 GFI       0.046700
     32 H133       280.5840   314.1720   372.7700 hc         1 GFI       0.046700
     33 H171       282.1120   314.8420   368.1300 ha         1 GFI       0.122000
     34 H051       286.7760   309.5350   370.1880 ha         1 GFI       0.166000
     35 H072       283.5570   310.6360   368.4290 hc         1 GFI       0.065700
     36 H071       285.0470   311.3730   368.9880 hc         1 GFI       0.065700
     37 H082       282.5100   311.1260   370.6930 hc         1 GFI       0.070200
     38 H081       283.9970   311.9440   371.1630 hc         1 GFI       0.070200
     39 H092       283.7180   313.5080   369.2050 h1         1 GFI       0.037700
     40 H091       282.1950   312.6950   368.8120 h1         1 GFI       0.037700
     41 H141       280.0310   317.4350   371.7720 ha         1 GFI       0.132000
     42 H161       281.0520   316.9710   367.6340 ha         1 GFI       0.135000
     43 H292       287.4920   304.9150   372.7410 h1         1 GFI       0.045867
     44 H291       286.6740   303.6240   371.8570 h1         1 GFI       0.045867
     45 H293       288.1590   304.3300   371.2080 h1         1 GFI       0.045867
     46 H303       286.3700   304.2940   369.3600 h1         1 GFI       0.045867
     47 H302       284.8170   304.4450   370.1890 h1         1 GFI       0.045867
     48 H301       285.4350   305.7690   369.1920 h1         1 GFI       0.045867
     49 O10        282.2100   313.7400   370.6040 os         1 GFI      -0.340100
@<TRIPOS>BOND
     1     1    14 1   
     2     1    30 1   
     3     1    31 1   
     4     1    32 1   
     5     2    15 ar  
     6     2    16 ar  
     7     2    17 1   
     8     3    13 ar  
     9     3    16 ar  
    10     3    33 1   
    11     4     5 1   
    12     4    25 2   
    13     4    28 1   
    14     5    20 1   
    15     5    21 1   
    16     5    22 1   
    17     6     7 1   
    18     6     8 1   
    19     6    23 2   
    20     7    26 1   
    21     7    29 2   
    22     8     9 2   
    23     8    34 1   
    24     9    10 1   
    25     9    27 1   
    26    10    11 1   
    27    10    35 1   
    28    10    36 1   
    29    11    12 1   
    30    11    37 1   
    31    11    38 1   
    32    12    39 1   
    33    12    40 1   
    34    12    49 1   
    35    13    14 ar  
    36    13    49 1   
    37    14    15 ar  
    38    15    41 1   
    39    16    42 1   
    40    17    24 2   
    41    17    25 1   
    42    18    26 1   
    43    18    43 1   
    44    18    44 1   
    45    18    45 1   
    46    19    26 1   
    47    19    46 1   
    48    19    47 1   
    49    19    48 1   
    50    23    27 1   
    51    24    28 1   
@<TRIPOS>SUBSTRUCTURE
     1 GFI         1 TEMP              0 ****  ****    0 ROOT
