@<TRIPOS>MOLECULE
GFI
   49    51     1     0     0
SMALL
No Charge or Current Charge


@<TRIPOS>ATOM
      1 C13        280.5550   314.6320   372.3970 c3         1 GFI      -0.035800
      2 C15        280.3370   317.3710   369.7020 ca         1 GFI      -0.195500
      3 C17        281.6840   315.5210   368.8360 ca         1 GFI      -0.215000
      4 C21        279.1730   320.5330   368.6320 cc         1 GFI       0.361300
      5 C22        278.9440   321.7420   367.7400 c3         1 GFI       0.315700
      6 C03        285.6300   307.6610   370.3140 cc         1 GFI       0.224500
      7 C04        286.8000   306.8970   370.9060 c          1 GFI       0.530600
      8 C05        285.8070   309.0010   369.8970 cc         1 GFI      -0.201000
      9 C06        284.6070   309.4050   369.4230 cd         1 GFI       0.169300
     10 C07        284.1730   310.7230   368.8420 c3         1 GFI      -0.113700
     11 C08        283.3070   311.5470   369.8220 c3         1 GFI      -0.080400
     12 C09        282.8620   312.9030   369.2410 c3         1 GFI       0.163600
     13 C11        281.5130   314.8120   370.0430 ca         1 GFI       0.174100
     14 C12        280.7520   315.3820   371.0830 ca         1 GFI      -0.116300
     15 C14        280.1700   316.6540   370.9090 ca         1 GFI      -0.035000
     16 C16        281.1010   316.7880   368.6680 ca         1 GFI      -0.021000
     17 C18        279.7240   318.7060   369.5230 cd         1 GFI       0.630500
     18 C29        287.8030   304.8210   371.9060 c3         1 GFI       0.089300
     19 C30        285.3640   304.7860   371.2530 c3         1 GFI       0.089300
     20 F24        279.5490   321.6150   366.5350 f          1 GFI      -0.084667
     21 F25        277.6260   321.9410   367.5030 f          1 GFI      -0.084667
     22 F26        279.4220   322.8740   368.3060 f          1 GFI      -0.084667
     23 N02        284.3800   307.2470   370.1080 nd         1 GFI      -0.338300
     24 N19        278.9970   319.2980   370.4590 nc         1 GFI      -0.358300
     25 N20        279.8620   319.4370   368.3640 nd         1 GFI      -0.661000
     26 N28        286.6380   305.5410   371.3340 n          1 GFI      -0.394800
     27 O01        283.7080   308.3810   369.5260 os         1 GFI      -0.066700
     28 O23        278.6200   320.5270   369.8760 os         1 GFI      -0.053700
     29 O27        287.9040   307.4240   371.0280 o          1 GFI      -0.583100
     30 H131       281.5180   314.4290   372.8820 hc         1 GFI       0.046700
     31 H132       279.9430   315.2010   373.1080 hc         1 GFI       0.046700
     32 H133       280.0560   313.6700   372.2290 hc         1 GFI       0.046700
     33 H171       282.2640   315.1090   368.0160 ha         1 GFI       0.122000
     34 H051       286.7240   309.5760   369.9530 ha         1 GFI       0.166000
     35 H072       283.6070   310.5470   367.9180 hc         1 GFI       0.065700
     36 H071       285.0560   311.3080   368.5590 hc         1 GFI       0.065700
     37 H082       282.4170   310.9670   370.0950 hc         1 GFI       0.070200
     38 H081       283.8730   311.7220   370.7450 hc         1 GFI       0.070200
     39 H092       283.7470   313.5010   368.9870 h1         1 GFI       0.037700
     40 H091       282.2730   312.7360   368.3300 h1         1 GFI       0.037700
     41 H141       279.5850   317.0810   371.7210 ha         1 GFI       0.132000
     42 H161       281.2490   317.3140   367.7260 ha         1 GFI       0.135000
     43 H292       288.1500   305.3390   372.8090 h1         1 GFI       0.045867
     44 H291       287.5420   303.7890   372.1720 h1         1 GFI       0.045867
     45 H293       288.6180   304.7950   371.1710 h1         1 GFI       0.045867
     46 H303       285.4850   303.7700   371.6500 h1         1 GFI       0.045867
     47 H302       284.5910   305.2910   371.8460 h1         1 GFI       0.045867
     48 H301       285.0410   304.7060   370.2070 h1         1 GFI       0.045867
     49 O10        282.0720   313.5630   370.2430 os         1 GFI      -0.340100
@<TRIPOS>BOND
     1     1    14 1   
     2     1    30 1   
     3     1    31 1   
     4     1    32 1   
     5     2    15 ar  
     6     2    16 ar  
     7     2    17 1   
     8     3    13 ar  
     9     3    16 ar  
    10     3    33 1   
    11     4     5 1   
    12     4    25 2   
    13     4    28 1   
    14     5    20 1   
    15     5    21 1   
    16     5    22 1   
    17     6     7 1   
    18     6     8 1   
    19     6    23 2   
    20     7    26 1   
    21     7    29 2   
    22     8     9 2   
    23     8    34 1   
    24     9    10 1   
    25     9    27 1   
    26    10    11 1   
    27    10    35 1   
    28    10    36 1   
    29    11    12 1   
    30    11    37 1   
    31    11    38 1   
    32    12    39 1   
    33    12    40 1   
    34    12    49 1   
    35    13    14 ar  
    36    13    49 1   
    37    14    15 ar  
    38    15    41 1   
    39    16    42 1   
    40    17    24 2   
    41    17    25 1   
    42    18    26 1   
    43    18    43 1   
    44    18    44 1   
    45    18    45 1   
    46    19    26 1   
    47    19    46 1   
    48    19    47 1   
    49    19    48 1   
    50    23    27 1   
    51    24    28 1   
@<TRIPOS>SUBSTRUCTURE
     1 GFI         1 TEMP              0 ****  ****    0 ROOT
