@<TRIPOS>MOLECULE
GFJ
   50    55     1     0     0
SMALL
bcc


@<TRIPOS>ATOM
      1 N12         -0.0220     2.9990    -0.4040 nc         1 GFJ      -0.536100
      2 C13         -0.7890     1.8660    -0.4310 ca         1 GFJ       0.123400
      3 C15         -2.1670     1.6920    -0.2570 ca         1 GFJ      -0.069500
      4 C17         -1.8350    -0.7170    -0.5300 cp         1 GFJ      -0.034000
      5 C24         -3.0600     2.8220    -0.0350 cc         1 GFJ       0.438000
      6 C26         -4.7460     3.9840     0.6250 cc         1 GFJ       0.368400
      7 C01          4.8870    -0.7990     2.3150 ca         1 GFJ      -0.146000
      8 C02          3.7160    -0.0700     2.5880 ca         1 GFJ      -0.141000
      9 C03          3.2340     0.0840     0.2130 ca         1 GFJ      -0.163300
     10 C04          4.4130    -0.6610    -0.0620 ca         1 GFJ       0.380600
     11 C05          5.2140    -1.0800     1.0250 ca         1 GFJ       0.091600
     12 C06          2.4740     0.4900    -0.9130 ca         1 GFJ       0.056800
     13 C07          2.8840     0.1420    -2.1660 ca         1 GFJ      -0.231300
     14 C08          4.0690    -0.6070    -2.3120 ca         1 GFJ       0.428200
     15 N09          4.8060    -0.9890    -1.3090 nb         1 GFJ      -0.632000
     16 N10          1.2920     1.2460    -0.7600 na         1 GFJ      -0.111400
     17 C11          1.2040     2.6030    -0.5940 cd         1 GFJ       0.452800
     18 C14          0.0180     0.7410    -0.6490 ca         1 GFJ      -0.074200
     19 C16         -2.6620     0.3940    -0.3060 ca         1 GFJ      -0.116000
     20 C18         -0.4670    -0.5520    -0.7080 ca         1 GFJ      -0.094000
     21 C19          2.9250     0.3520     1.5640 ca         1 GFJ       0.140900
     22 F20          1.8150     1.0450     1.8520 f          1 GFJ      -0.121900
     23 C23         -2.4160    -2.0710    -0.6300 cp         1 GFJ       0.007000
     24 N25         -4.2140     2.7480     0.6720 na         1 GFJ      -0.449700
     25 N27         -3.9740     4.7710    -0.0680 nd         1 GFJ      -0.362000
     26 N28         -2.9120     4.0420    -0.4840 nd         1 GFJ      -0.318000
     27 C29         -3.2640    -2.5790     0.3250 ca         1 GFJ      -0.048400
     28 C30         -3.8090    -3.8680     0.2160 ca         1 GFJ       0.641200
     29 N31         -3.5100    -4.6360    -0.8230 nb         1 GFJ      -0.728000
     30 C32         -2.6850    -4.1620    -1.7540 ca         1 GFJ       0.439200
     31 C33         -2.1150    -2.9090    -1.7130 ca         1 GFJ      -0.274300
     32 F34         -3.5790    -1.8560     1.4150 f          1 GFJ      -0.144900
     33 N35         -4.6860    -4.3410     1.1440 nv         1 GFJ      -0.936500
     34 H1           3.0620     3.2820     0.2140 hc         1 GFJ       0.065033
     35 H2           2.9810     3.3210    -1.5420 hc         1 GFJ       0.065033
     36 H3           2.0910     4.5160    -0.5890 hc         1 GFJ       0.065033
     37 H4          -5.6720     4.2550     1.1050 h5         1 GFJ       0.062100
     38 H5           5.5190    -1.1320     3.1270 ha         1 GFJ       0.162000
     39 H6           3.4450     0.1540     3.6100 ha         1 GFJ       0.162000
     40 H7           2.3170     0.4420    -3.0370 ha         1 GFJ       0.165000
     41 H8           4.4020    -0.8830    -3.3060 h4         1 GFJ       0.035100
     42 H9          -3.7290     0.2370    -0.2220 ha         1 GFJ       0.137000
     43 H10          0.1850    -1.4020    -0.8720 ha         1 GFJ       0.147000
     44 H11         -4.5800     1.9560     1.1800 hn         1 GFJ       0.311700
     45 H12         -2.4730    -4.8280    -2.5830 h4         1 GFJ       0.024100
     46 H13         -1.4660    -2.5710    -2.5090 ha         1 GFJ       0.149000
     47 H14         -4.6680    -3.9470     2.0700 hn         1 GFJ       0.423300
     48 H15         -4.8390    -5.3370     1.1270 hn         1 GFJ       0.423300
     49 C22          2.4000     3.4750    -0.6320 c3         1 GFJ      -0.118400
     50 F21          6.3190    -1.7720     0.7470 f          1 GFJ      -0.111900
@<TRIPOS>BOND
     1     1     2 1   
     2     1    17 2   
     3     2     3 ar  
     4     2    18 ar  
     5     3     5 1   
     6     3    19 ar  
     7     4    19 ar  
     8     4    20 ar  
     9     4    23 1   
    10     5    24 1   
    11     5    26 2   
    12     6    24 1   
    13     6    25 2   
    14     6    37 1   
    15     7     8 ar  
    16     7    11 ar  
    17     7    38 1   
    18     8    21 ar  
    19     8    39 1   
    20     9    10 ar  
    21     9    12 ar  
    22     9    21 ar  
    23    10    11 ar  
    24    10    15 ar  
    25    11    50 1   
    26    12    13 ar  
    27    12    16 1   
    28    13    14 ar  
    29    13    40 1   
    30    14    15 ar  
    31    14    41 1   
    32    16    17 1   
    33    16    18 1   
    34    17    49 1   
    35    18    20 ar  
    36    19    42 1   
    37    20    43 1   
    38    21    22 1   
    39    23    27 ar  
    40    23    31 ar  
    41    24    44 1   
    42    25    26 1   
    43    27    28 ar  
    44    27    32 1   
    45    28    29 ar  
    46    28    33 1   
    47    29    30 ar  
    48    30    31 ar  
    49    30    45 1   
    50    31    46 1   
    51    33    47 1   
    52    33    48 1   
    53    34    49 1   
    54    35    49 1   
    55    36    49 1   
@<TRIPOS>SUBSTRUCTURE
     1 GFJ         1 TEMP              0 ****  ****    0 ROOT
