@<TRIPOS>MOLECULE
GFJ
   50    55     1     0     0
SMALL
No Charge or Current Charge


@<TRIPOS>ATOM
      1 N12          0.0730     3.0350    -0.5290 nc         1 GFJ      -0.536100
      2 C13         -0.7060     1.8750    -0.5100 ca         1 GFJ       0.123400
      3 C15         -2.0660     1.7290    -0.1480 ca         1 GFJ      -0.069500
      4 C17         -1.8330    -0.7230    -0.5560 cp         1 GFJ      -0.034000
      5 C24         -2.9140     2.8730     0.2360 cc         1 GFJ       0.438000
      6 C26         -4.6490     4.0320     0.9410 cc         1 GFJ       0.368400
      7 C01          4.4940    -0.7690     2.4570 ca         1 GFJ      -0.128000
      8 C02          3.2910    -0.0640     2.5660 ca         1 GFJ      -0.123000
      9 C03          3.1350     0.1040     0.1130 ca         1 GFJ      -0.098000
     10 C04          4.3670    -0.6160     0.0060 ca         1 GFJ       0.250000
     11 C05          5.0250    -1.0410     1.1910 ca         1 GFJ       0.192000
     12 C06          2.4960     0.5150    -1.0990 ca         1 GFJ       0.056800
     13 C07          3.1080     0.1910    -2.3190 ca         1 GFJ      -0.148000
     14 C08          4.3110    -0.5120    -2.3270 ca         1 GFJ       0.362900
     15 N09          4.9270    -0.9060    -1.1970 nb         1 GFJ      -0.632000
     16 N10          1.2860     1.2090    -1.1910 na         1 GFJ      -0.111400
     17 C11          1.2870     2.5790    -0.8940 cd         1 GFJ       0.452800
     18 C14          0.0330     0.7790    -0.8760 ca         1 GFJ      -0.074200
     19 C16         -2.6090     0.4150    -0.1880 ca         1 GFJ      -0.098000
     20 C18         -0.4800    -0.5200    -0.9150 ca         1 GFJ      -0.076000
     21 C19          2.6170     0.3690     1.4150 ca         1 GFJ       0.176000
     22 F20          1.4700     1.0500     1.6120 f          1 GFJ      -0.157000
     23 C23         -2.4280    -2.0960    -0.5910 cp         1 GFJ       0.007000
     24 N25         -4.1970     2.7620     0.7080 na         1 GFJ      -0.500000
     25 N27         -3.6910     4.8850     0.6240 nd         1 GFJ      -0.362000
     26 N28         -2.6080     4.1610     0.1820 nd         1 GFJ      -0.318000
     27 C29         -3.2930    -2.5920     0.4170 ca         1 GFJ       0.052000
     28 C30         -3.8020    -3.9080     0.2890 ca         1 GFJ       0.575900
     29 N31         -3.5270    -4.7390    -0.7140 nb         1 GFJ      -0.728000
     30 C32         -2.7000    -4.2770    -1.6780 ca         1 GFJ       0.373900
     31 C33         -2.1390    -2.9880    -1.6540 ca         1 GFJ      -0.191000
     32 F34         -3.6050    -1.8410     1.5050 f          1 GFJ      -0.180000
     33 N35         -4.6190    -4.5110     1.1740 nv         1 GFJ      -1.046900
     34 H1           3.1670     3.2790    -0.1160 hc         1 GFJ       0.065033
     35 H2           3.0490     3.3210    -1.8860 hc         1 GFJ       0.065033
     36 H3           2.2020     4.5340    -0.9120 hc         1 GFJ       0.065033
     37 H4          -5.6370     4.2610     1.3230 h5         1 GFJ       0.062100
     38 H5           5.0180    -1.1050     3.3490 ha         1 GFJ       0.144000
     39 H6           2.8750     0.1520     3.5470 ha         1 GFJ       0.144000
     40 H7           2.6540     0.4780    -3.2640 ha         1 GFJ       0.147000
     41 H8           4.7990    -0.7710    -3.2660 h4         1 GFJ       0.035100
     42 H9          -3.6560     0.2610     0.0560 ha         1 GFJ       0.119000
     43 H10          0.1530    -1.3540    -1.2080 ha         1 GFJ       0.129000
     44 H11         -4.7110     1.9080     0.8630 hn         1 GFJ       0.362000
     45 H12         -2.4810    -4.9600    -2.4970 h4         1 GFJ       0.024100
     46 H13         -1.4890    -2.6820    -2.4690 ha         1 GFJ       0.131000
     47 H14         -4.6590    -4.1230     2.1110 hn         1 GFJ       0.478500
     48 H15         -4.6970    -5.5170     1.0890 hn         1 GFJ       0.478500
     49 C22          2.4920     3.4780    -0.9550 c3         1 GFJ      -0.118400
     50 F21          6.1930    -1.7250     1.1190 f          1 GFJ      -0.147000
@<TRIPOS>BOND
     1     1     2 1   
     2     1    17 2   
     3     2     3 ar  
     4     2    18 ar  
     5     3     5 1   
     6     3    19 ar  
     7     4    19 ar  
     8     4    20 ar  
     9     4    23 1   
    10     5    24 1   
    11     5    26 2   
    12     6    24 1   
    13     6    25 2   
    14     6    37 1   
    15     7     8 ar  
    16     7    11 ar  
    17     7    38 1   
    18     8    21 ar  
    19     8    39 1   
    20     9    10 ar  
    21     9    12 ar  
    22     9    21 ar  
    23    10    11 ar  
    24    10    15 ar  
    25    11    50 1   
    26    12    13 ar  
    27    12    16 1   
    28    13    14 ar  
    29    13    40 1   
    30    14    15 ar  
    31    14    41 1   
    32    16    17 1   
    33    16    18 1   
    34    17    49 1   
    35    18    20 ar  
    36    19    42 1   
    37    20    43 1   
    38    21    22 1   
    39    23    27 ar  
    40    23    31 ar  
    41    24    44 1   
    42    25    26 1   
    43    27    28 ar  
    44    27    32 1   
    45    28    29 ar  
    46    28    33 1   
    47    29    30 ar  
    48    30    31 ar  
    49    30    45 1   
    50    31    46 1   
    51    33    47 1   
    52    33    48 1   
    53    34    49 1   
    54    35    49 1   
    55    36    49 1   
@<TRIPOS>SUBSTRUCTURE
     1 GFJ         1 TEMP              0 ****  ****    0 ROOT
