@<TRIPOS>MOLECULE
GFK
   49    52     1     0     0
SMALL
No Charge or Current Charge


@<TRIPOS>ATOM
      1 C4          -6.5710    -1.2080     1.2500 ca         1 GFK      -0.003000
      2 C14          3.2200    -2.4840    -0.7410 c6         1 GFK       0.098000
      3 C5          -5.5680    -0.4890     0.5780 ca         1 GFK       0.041400
      4 C6          -3.5460     0.0830    -0.1300 cc         1 GFK       0.304200
      5 C11          1.1820    -1.2350     0.1740 c6         1 GFK      -0.097000
      6 C7          -5.9060     0.6090    -0.1830 ca         1 GFK      -0.149000
      7 C8          -7.2350     1.0410    -0.3140 ca         1 GFK      -0.126000
      8 C9          -2.1040     0.0910    -0.3390 cc         1 GFK       0.548700
      9 C10         -0.1050    -0.5150    -0.1760 cd         1 GFK       0.478300
     10 C12          2.1620    -0.3030     0.9450 c6         1 GFK      -0.093900
     11 C13          3.4970    -1.0250     1.2420 c6         1 GFK       0.098000
     12 N1          -4.2190    -0.8130     0.6260 nd         1 GFK      -0.466100
     13 N2          -1.4670     0.9830    -1.0870 nd         1 GFK      -0.368300
     14 C3          -7.9160    -0.7980     1.1380 ca         1 GFK      -0.199000
     15 N3          -1.3010    -0.8580     0.2470 nc         1 GFK      -0.671000
     16 C1         -10.6610     0.1230     0.8480 c3         1 GFK       0.147900
     17 C2          -8.2520     0.3320     0.3530 ca         1 GFK       0.164100
     18 S1          -4.5060     1.3550    -0.9320 ss         1 GFK       0.100800
     19 O2          -0.1180     0.5820    -0.9830 os         1 GFK      -0.077700
     20 N4           4.1060    -1.5330    -0.0190 n          1 GFK      -0.414800
     21 C15          1.8740    -1.8080    -1.0970 c6         1 GFK      -0.093900
     22 C16          5.2820    -1.0050    -0.6100 c          1 GFK       0.614100
     23 O3           5.6210    -1.3510    -1.7350 o          1 GFK      -0.598100
     24 C17          6.1440    -0.0120     0.1960 c3         1 GFK      -0.157400
     25 C18          7.4700     0.4450    -0.4820 c3         1 GFK      -0.137400
     26 C19          8.3070     1.4360     0.3560 c3         1 GFK       0.295000
     27 F1           7.6130     2.5690     0.6080 f          1 GFK      -0.119000
     28 F2           8.6670     0.8920     1.5400 f          1 GFK      -0.119000
     29 F3           9.4360     1.7800    -0.3040 f          1 GFK      -0.119000
     30 H1          -6.3090    -2.0750     1.8530 ha         1 GFK       0.135000
     31 H2           3.6980    -2.8570    -1.6570 h1         1 GFK       0.059950
     32 H3           3.0340    -3.3570    -0.0990 h1         1 GFK       0.059950
     33 H4           0.9330    -2.0790     0.8310 hc         1 GFK       0.087700
     34 H5          -7.4810     1.9090    -0.9190 ha         1 GFK       0.141000
     35 H6           2.3650     0.6040     0.3570 hc         1 GFK       0.064950
     36 H7           1.7040     0.0310     1.8860 hc         1 GFK       0.064950
     37 H8           4.1660    -0.3450     1.7850 h1         1 GFK       0.059950
     38 H9           3.3070    -1.8770     1.9110 h1         1 GFK       0.059950
     39 H10         -8.6770    -1.3660     1.6650 ha         1 GFK       0.123000
     40 H11        -10.7470    -0.9180     0.5120 h1         1 GFK       0.044033
     41 H12        -10.5450     0.1340     1.9390 h1         1 GFK       0.044033
     42 H13        -11.5980     0.6380     0.6010 h1         1 GFK       0.044033
     43 H14          2.0570    -1.0040    -1.8240 hc         1 GFK       0.064950
     44 H15          1.2150    -2.5350    -1.5920 hc         1 GFK       0.064950
     45 H16          5.5100     0.8450     0.4490 hc         1 GFK       0.073200
     46 H17          6.3250    -0.4520     1.1830 hc         1 GFK       0.073200
     47 H18          8.0870    -0.4360    -0.6980 hc         1 GFK       0.095200
     48 H19          7.2410     0.9110    -1.4480 hc         1 GFK       0.095200
     49 O1          -9.5510     0.7770     0.2080 os         1 GFK      -0.336100
@<TRIPOS>BOND
     1     1     3 ar  
     2     1    14 ar  
     3     1    30 1   
     4     2    20 1   
     5     2    21 1   
     6     2    31 1   
     7     2    32 1   
     8     3     6 ar  
     9     3    12 1   
    10     4     8 1   
    11     4    12 2   
    12     4    18 1   
    13     5     9 1   
    14     5    10 1   
    15     5    21 1   
    16     5    33 1   
    17     6     7 ar  
    18     6    18 1   
    19     7    17 ar  
    20     7    34 1   
    21     8    13 2   
    22     8    15 1   
    23     9    15 2   
    24     9    19 1   
    25    10    11 1   
    26    10    35 1   
    27    10    36 1   
    28    11    20 1   
    29    11    37 1   
    30    11    38 1   
    31    13    19 1   
    32    14    17 ar  
    33    14    39 1   
    34    16    40 1   
    35    16    41 1   
    36    16    42 1   
    37    16    49 1   
    38    17    49 1   
    39    20    22 1   
    40    21    43 1   
    41    21    44 1   
    42    22    23 2   
    43    22    24 1   
    44    24    25 1   
    45    24    45 1   
    46    24    46 1   
    47    25    26 1   
    48    25    47 1   
    49    25    48 1   
    50    26    27 1   
    51    26    28 1   
    52    26    29 1   
@<TRIPOS>SUBSTRUCTURE
     1 GFK         1 TEMP              0 ****  ****    0 ROOT
