@<TRIPOS>MOLECULE
GFK
   49    52     1     0     0
SMALL
bcc


@<TRIPOS>ATOM
      1 C4          -6.5250    -1.2290     1.2040 ca         1 GFK      -0.021000
      2 C14          3.2460    -2.3710    -0.7810 c6         1 GFK       0.098000
      3 C5          -5.5290    -0.5220     0.5360 ca         1 GFK       0.041400
      4 C6          -3.5390     0.0180    -0.1850 cc         1 GFK       0.304200
      5 C11          1.1890    -1.2400     0.0930 c6         1 GFK      -0.097000
      6 C7          -5.8850     0.6220    -0.2030 ca         1 GFK      -0.022100
      7 C8          -7.1910     1.0700    -0.2820 ca         1 GFK      -0.144000
      8 C9          -2.1020    -0.0450    -0.3780 cc         1 GFK       0.548700
      9 C10         -0.1270    -0.6300    -0.2190 cd         1 GFK       0.522700
     10 C12          2.0950    -0.2610     0.8480 c6         1 GFK      -0.093900
     11 C13          3.4370    -0.9150     1.1510 c6         1 GFK       0.098000
     12 N1          -4.1940    -0.8300     0.5230 nd         1 GFK      -0.466100
     13 N2          -1.4760     0.7920    -1.1480 nd         1 GFK      -0.368300
     14 C3          -7.8330    -0.7960     1.1340 ca         1 GFK      -0.217000
     15 N3          -1.2930    -0.9590     0.2260 nc         1 GFK      -0.671000
     16 C1         -10.4710     0.1630     0.9580 c3         1 GFK       0.124700
     17 C2          -8.1720     0.3530     0.3970 ca         1 GFK       0.164100
     18 S1          -4.4680     1.2990    -0.9260 ss         1 GFK      -0.026100
     19 O2          -0.1760     0.4100    -1.0470 os         1 GFK      -0.122100
     20 N4           4.0600    -1.4100    -0.0600 n          1 GFK      -0.481800
     21 C15          1.8980    -1.7700    -1.1570 c6         1 GFK      -0.093900
     22 C16          5.2590    -1.0140    -0.5430 c          1 GFK       0.681100
     23 O3           5.7230    -1.4540    -1.5830 o          1 GFK      -0.598100
     24 C17          6.0250     0.0160     0.2720 c3         1 GFK      -0.157400
     25 C18          7.3630     0.3460    -0.3730 c3         1 GFK      -0.137400
     26 C19          8.1370     1.3740     0.4060 c3         1 GFK       0.658900
     27 F1           7.4650     2.5310     0.5390 f          1 GFK      -0.240300
     28 F2           8.4270     0.9620     1.6530 f          1 GFK      -0.240300
     29 F3           9.3020     1.6710    -0.1810 f          1 GFK      -0.240300
     30 H1          -6.2730    -2.1130     1.7730 ha         1 GFK       0.153000
     31 H2           3.7740    -2.6970    -1.6720 h1         1 GFK       0.059950
     32 H3           3.0970    -3.2540    -0.1500 h1         1 GFK       0.059950
     33 H4           0.9690    -2.0860     0.7520 hc         1 GFK       0.087700
     34 H5          -7.4570     1.9540    -0.8460 ha         1 GFK       0.159000
     35 H6           2.2580     0.6430     0.2570 hc         1 GFK       0.064950
     36 H7           1.6290     0.0440     1.7860 hc         1 GFK       0.064950
     37 H8           4.0780    -0.2040     1.6610 h1         1 GFK       0.059950
     38 H9           3.2930    -1.7490     1.8460 h1         1 GFK       0.059950
     39 H10         -8.5890    -1.3590     1.6620 ha         1 GFK       0.141000
     40 H11        -10.6040    -0.8590     0.5950 h1         1 GFK       0.044033
     41 H12        -10.3240     0.1380     2.0410 h1         1 GFK       0.044033
     42 H13        -11.3750     0.7270     0.7460 h1         1 GFK       0.044033
     43 H14          2.0500    -0.9670    -1.8830 hc         1 GFK       0.064950
     44 H15          1.2890    -2.5350    -1.6410 hc         1 GFK       0.064950
     45 H16          5.4220     0.9210     0.3680 hc         1 GFK       0.073200
     46 H17          6.1780    -0.3640     1.2850 hc         1 GFK       0.073200
     47 H18          7.9820    -0.5480    -0.4560 hc         1 GFK       0.095200
     48 H19          7.2190     0.7290    -1.3840 hc         1 GFK       0.095200
     49 O1          -9.4200     0.8310     0.2940 os         1 GFK      -0.312900
@<TRIPOS>BOND
     1     1     3 ar  
     2     1    14 ar  
     3     1    30 1   
     4     2    20 1   
     5     2    21 1   
     6     2    31 1   
     7     2    32 1   
     8     3     6 ar  
     9     3    12 1   
    10     4     8 1   
    11     4    12 2   
    12     4    18 1   
    13     5     9 1   
    14     5    10 1   
    15     5    21 1   
    16     5    33 1   
    17     6     7 ar  
    18     6    18 1   
    19     7    17 ar  
    20     7    34 1   
    21     8    13 2   
    22     8    15 1   
    23     9    15 2   
    24     9    19 1   
    25    10    11 1   
    26    10    35 1   
    27    10    36 1   
    28    11    20 1   
    29    11    37 1   
    30    11    38 1   
    31    13    19 1   
    32    14    17 ar  
    33    14    39 1   
    34    16    40 1   
    35    16    41 1   
    36    16    42 1   
    37    16    49 1   
    38    17    49 1   
    39    20    22 1   
    40    21    43 1   
    41    21    44 1   
    42    22    23 2   
    43    22    24 1   
    44    24    25 1   
    45    24    45 1   
    46    24    46 1   
    47    25    26 1   
    48    25    47 1   
    49    25    48 1   
    50    26    27 1   
    51    26    28 1   
    52    26    29 1   
@<TRIPOS>SUBSTRUCTURE
     1 GFK         1 TEMP              0 ****  ****    0 ROOT
