@<TRIPOS>MOLECULE
GFM
   48    50     1     0     0
SMALL
No Charge or Current Charge


@<TRIPOS>ATOM
      1 N1          10.0310     6.7240     9.2150 ns         1 GFM      -0.463400
      2 C2           8.9520     6.8320     8.4070 cc         1 GFM       0.684800
      3 N2           9.2000     6.7730     7.1110 nv         1 GFM      -1.095200
      4 N3           7.6980     7.0000     8.7640 nd         1 GFM      -0.668100
      5 C4           7.5350     7.0580    10.1500 cd         1 GFM       0.073400
      6 C5           8.5660     6.9610    11.0460 cc         1 GFM       0.102500
      7 C6           9.9630     6.7740    10.5730 c          1 GFM       0.520500
      8 O6          10.9610     6.6730    11.2760 o          1 GFM      -0.568000
      9 N7           8.0980     7.0640    12.3360 nc         1 GFM      -0.628000
     10 C8           6.7730     7.2190    12.2220 cd         1 GFM       0.492400
     11 N9           6.3830     7.2250    10.8820 na         1 GFM      -0.166500
     12 PA           3.8010     5.6230    15.1230 p5         1 GFM       1.490800
     13 PB           4.1280     3.1810    14.1270 p5         1 GFM       1.549400
     14 PG           6.5940     1.9540    14.7940 p5         1 GFM       1.329500
     15 C1           5.0290     7.3950    10.3610 c5         1 GFM       0.311300
     16 O1A          2.4110     5.1850    15.4410 o          1 GFM      -0.844500
     17 O1B          3.0420     3.2150    13.0890 o          1 GFM      -0.873500
     18 O1G          6.7720     3.1160    15.7080 o          1 GFM      -0.940833
     19 C7           4.3360     6.0860     9.8820 c5         1 GFM      -0.143400
     20 O2A          4.5290     6.0470    16.3550 o          1 GFM      -0.844500
     21 O2B          3.6620     2.5470    15.4010 o          1 GFM      -0.873500
     22 O2G          7.9420     1.5580    14.2850 o          1 GFM      -0.940833
     23 C3           3.7140     5.6040    11.2070 c5         1 GFM       0.190300
     24 O3           2.7360     4.5740    11.0160 oh         1 GFM      -0.825000
     25 O3A          4.6860     4.6520    14.2540 os         1 GFM      -0.727800
     26 C3B          5.5490     2.3070    13.3190 c3         1 GFM      -0.424000
     27 F3B2         5.1430     1.1460    12.6910 f          1 GFM      -0.339000
     28 C3B3         6.2930     3.1640    12.2610 c3         1 GFM      -0.039100
     29 O3G          6.0720     0.7710    15.5430 o          1 GFM      -0.940833
     30 C9           3.1270     6.9560    11.6850 c5         1 GFM       0.104300
     31 O4           4.1820     7.9150    11.4150 os         1 GFM      -0.458000
     32 C10          2.6540     7.0150    13.1640 c3         1 GFM       0.237600
     33 O5           3.7570     6.8590    14.0840 os         1 GFM      -0.629400
     34 HN1         10.9410     6.5800     8.8080 hn         1 GFM       0.286500
     35 HN2          8.4180     7.0620     6.5360 hn         1 GFM       0.487000
     36 HN2A        10.1100     7.0910     6.8010 hn         1 GFM       0.487000
     37 H8           6.0620     7.3370    13.0320 h5         1 GFM       0.152100
     38 H1           5.1080     8.1210     9.5420 h2         1 GFM       0.041700
     39 H2           3.5760     6.2970     9.1210 hc         1 GFM       0.043700
     40 H2'A         5.0410     5.3640     9.4560 hc         1 GFM       0.043700
     41 H3           4.5050     5.2750    11.8920 h1         1 GFM       0.088700
     42 HO3          2.8100     3.9750    11.8500 ho         1 GFM       0.630000
     43 HC3B         7.1480     2.6160    11.8460 hc         1 GFM      -0.001300
     44 HC3A         5.6300     3.4070    11.4240 hc         1 GFM      -0.001300
     45 HC3C         6.6740     4.0980    12.6880 hc         1 GFM      -0.001300
     46 H4           2.2690     7.2290    11.0540 h1         1 GFM       0.016700
     47 H5           2.1690     7.9850    13.3310 h1         1 GFM       0.036200
     48 H5'A         1.8850     6.2440    13.3010 h1         1 GFM       0.036200
@<TRIPOS>BOND
     1     1     2 1   
     2     1     7 1   
     3     1    34 1   
     4     2     3 1   
     5     2     4 2   
     6     3    35 1   
     7     3    36 1   
     8     4     5 1   
     9     5     6 2   
    10     5    11 1   
    11     6     7 1   
    12     6     9 1   
    13     7     8 2   
    14     9    10 2   
    15    10    11 1   
    16    10    37 1   
    17    11    15 1   
    18    12    16 1   
    19    12    20 1   
    20    12    25 1   
    21    12    33 1   
    22    13    17 1   
    23    13    21 1   
    24    13    25 1   
    25    13    26 1   
    26    14    18 1   
    27    14    22 1   
    28    14    26 1   
    29    14    29 1   
    30    15    19 1   
    31    15    31 1   
    32    15    38 1   
    33    19    23 1   
    34    19    39 1   
    35    19    40 1   
    36    23    24 1   
    37    23    30 1   
    38    23    41 1   
    39    24    42 1   
    40    26    27 1   
    41    26    28 1   
    42    28    43 1   
    43    28    44 1   
    44    28    45 1   
    45    30    31 1   
    46    30    32 1   
    47    30    46 1   
    48    32    33 1   
    49    32    47 1   
    50    32    48 1   
@<TRIPOS>SUBSTRUCTURE
     1 GFM         1 TEMP              0 ****  ****    0 ROOT
