@<TRIPOS>MOLECULE
GFM
   48    50     1     0     0
SMALL
abcg2


@<TRIPOS>ATOM
      1 N1           9.8440     8.4500     8.3420 ns         1 GFM      -0.463400
      2 C2           8.6470     8.4840     7.6830 cc         1 GFM       0.684800
      3 N2           8.6770     8.7690     6.3770 nv         1 GFM      -1.095200
      4 N3           7.5010     8.2480     8.2740 nd         1 GFM      -0.668100
      5 C4           7.6280     7.9820     9.5830 cd         1 GFM       0.073400
      6 C5           8.7830     7.9260    10.3420 cc         1 GFM       0.102500
      7 C6          10.0320     8.1770     9.7050 c          1 GFM       0.520500
      8 O6          11.1530     8.1750    10.1840 o          1 GFM      -0.568000
      9 N7           8.4890     7.6170    11.6450 nc         1 GFM      -0.628000
     10 C8           7.1960     7.4870    11.6700 cd         1 GFM       0.492400
     11 N9           6.6160     7.7030    10.4450 na         1 GFM      -0.166500
     12 PA           4.8720     5.4120    14.9990 p5         1 GFM       1.490800
     13 PB           3.8700     2.7800    13.8120 p5         1 GFM       1.549400
     14 PG           4.3220     1.0430    16.5140 p5         1 GFM       1.329500
     15 C1           5.2050     7.6000    10.0750 c5         1 GFM       0.311300
     16 O1A          3.6640     5.5680    15.8650 o          1 GFM      -0.844500
     17 O1B          4.1200     2.6270    12.3130 o          1 GFM      -0.873500
     18 O1G          4.9200     2.3040    17.1440 o          1 GFM      -0.940833
     19 C7           4.8430     6.2170     9.5450 c5         1 GFM      -0.143400
     20 O2A          6.2510     5.6970    15.4990 o          1 GFM      -0.844500
     21 O2B          2.4680     3.1010    14.2360 o          1 GFM      -0.873500
     22 O2G          5.1170    -0.2340    16.8120 o          1 GFM      -0.940833
     23 C3           4.3710     5.4970    10.8030 c5         1 GFM       0.190300
     24 O3           3.5530     4.4070    10.5430 oh         1 GFM      -0.825000
     25 O3A          4.9400     3.9320    14.3070 os         1 GFM      -0.727800
     26 C3B          4.5890     1.2910    14.6410 c3         1 GFM      -0.424000
     27 F3B2         3.8930     0.2200    13.9800 f          1 GFM      -0.339000
     28 C3B3         6.0510     1.1350    14.2690 c3         1 GFM      -0.039100
     29 O3G          2.8140     0.8820    16.7090 o          1 GFM      -0.940833
     30 C9           3.6540     6.6480    11.5170 c5         1 GFM       0.104300
     31 O4           4.4250     7.8130    11.2160 os         1 GFM      -0.458000
     32 C10          3.4630     6.5000    13.0080 c3         1 GFM       0.237600
     33 O5           4.7040     6.3670    13.6590 os         1 GFM      -0.629400
     34 HN1         10.6890     8.6380     7.8170 hn         1 GFM       0.286500
     35 HN2          7.8130     8.8060     5.8660 hn         1 GFM       0.487000
     36 HN2A         9.5290     8.9660     5.8820 hn         1 GFM       0.487000
     37 H8           6.6090     7.2410    12.5420 h5         1 GFM       0.152100
     38 H1           5.0270     8.3860     9.3370 h2         1 GFM       0.041700
     39 H2           4.0110     6.3070     8.8410 hc         1 GFM       0.043700
     40 H2'A         5.6730     5.7340     9.0310 hc         1 GFM       0.043700
     41 H3           5.2490     5.2040    11.3960 h1         1 GFM       0.088700
     42 HO3          3.7230     3.7150    11.2450 ho         1 GFM       0.630000
     43 HC3B         6.4080     0.1540    14.5820 hc         1 GFM      -0.001300
     44 HC3A         6.2260     1.2440    13.1970 hc         1 GFM      -0.001300
     45 HC3C         6.6520     1.8810    14.7850 hc         1 GFM      -0.001300
     46 H4           2.6520     6.7520    11.0750 h1         1 GFM       0.016700
     47 H5           2.9210     7.3690    13.3990 h1         1 GFM       0.036200
     48 H5'A         2.8090     5.6330    13.1580 h1         1 GFM       0.036200
@<TRIPOS>BOND
     1     1     2 1   
     2     1     7 1   
     3     1    34 1   
     4     2     3 1   
     5     2     4 2   
     6     3    35 1   
     7     3    36 1   
     8     4     5 1   
     9     5     6 2   
    10     5    11 1   
    11     6     7 1   
    12     6     9 1   
    13     7     8 2   
    14     9    10 2   
    15    10    11 1   
    16    10    37 1   
    17    11    15 1   
    18    12    16 1   
    19    12    20 1   
    20    12    25 1   
    21    12    33 1   
    22    13    17 1   
    23    13    21 1   
    24    13    25 1   
    25    13    26 1   
    26    14    18 1   
    27    14    22 1   
    28    14    26 1   
    29    14    29 1   
    30    15    19 1   
    31    15    31 1   
    32    15    38 1   
    33    19    23 1   
    34    19    39 1   
    35    19    40 1   
    36    23    24 1   
    37    23    30 1   
    38    23    41 1   
    39    24    42 1   
    40    26    27 1   
    41    26    28 1   
    42    28    43 1   
    43    28    44 1   
    44    28    45 1   
    45    30    31 1   
    46    30    32 1   
    47    30    46 1   
    48    32    33 1   
    49    32    47 1   
    50    32    48 1   
@<TRIPOS>SUBSTRUCTURE
     1 GFM         1 TEMP              0 ****  ****    0 ROOT
