@<TRIPOS>MOLECULE
GFN
   48    51     1     0     0
SMALL
abcg2


@<TRIPOS>ATOM
      1 C01         -5.8510    -0.2420    -1.9760 c3         1 GFN      -0.089100
      2 C02         -4.8840    -0.4450    -0.8230 c6         1 GFN       0.159500
      3 C03         -3.5760     0.3090    -1.0640 c6         1 GFN       0.166800
      4 N04         -2.7000     0.1480     0.0840 nh         1 GFN      -0.803400
      5 C05         -3.2940     0.5880     1.3360 c6         1 GFN       0.164800
      6 C06         -4.6010    -0.1590     1.5570 c6         1 GFN       0.149800
      7 N07         -5.5190    -0.0690     0.4340 n7         1 GFN      -0.857400
      8 C08         -1.3400     0.4620    -0.0760 ca         1 GFN       0.187000
      9 C09         -0.8880     1.7390    -0.4300 ca         1 GFN       0.092000
     10 C10          0.4310     2.0820    -0.4480 ca         1 GFN      -0.083000
     11 C11          1.3930     1.1180    -0.1350 ca         1 GFN      -0.181600
     12 C12          1.0000    -0.1970     0.1430 ca         1 GFN       0.303000
     13 C13         -0.3810    -0.5030     0.2310 ca         1 GFN       0.101100
     14 O14         -0.7280    -1.7010     0.7270 os         1 GFN      -0.355100
     15 C15         -1.6450    -2.5360     0.0290 c3         1 GFN       0.172900
     16 N16          1.9910    -1.1430     0.3750 na         1 GFN      -0.629200
     17 C17          3.2580    -0.7250     0.5700 cc         1 GFN       0.020000
     18 C18          3.7140     0.5540     0.4490 cd         1 GFN      -0.300400
     19 C19          2.8080     1.5500    -0.0640 c          1 GFN       0.591900
     20 O20          3.1140     2.6850    -0.4220 o          1 GFN      -0.540100
     21 C21          5.1700     0.8200     0.7990 c          1 GFN       0.728200
     22 O22          5.8820    -0.1880     0.9980 o          1 GFN      -0.712500
     23 O23          5.5330     2.0050     0.8840 o          1 GFN      -0.712500
     24 C24          1.7720    -2.5680     0.2330 cx         1 GFN       0.188500
     25 C25          2.7510    -3.3480    -0.5880 cx         1 GFN      -0.144400
     26 C26          1.3670    -3.1020    -1.1010 cx         1 GFN      -0.144400
     27 F27         -1.8060     2.6810    -0.7040 f          1 GFN      -0.197000
     28 H011        -5.4140    -0.5770    -2.9170 hc         1 GFN       0.035700
     29 H012        -6.7710    -0.8050    -1.8120 hc         1 GFN       0.035700
     30 H013        -6.1170     0.8110    -2.0890 hc         1 GFN       0.035700
     31 H021        -4.6440    -1.5120    -0.7510 h1         1 GFN       0.063700
     32 H032        -3.0760    -0.0960    -1.9480 h1         1 GFN       0.040700
     33 H031        -3.8170     1.3620    -1.2740 h1         1 GFN       0.040700
     34 H051        -2.6030     0.3720     2.1540 h1         1 GFN       0.044700
     35 H052        -3.4820     1.6740     1.3460 h1         1 GFN       0.044700
     36 H062        -4.3760    -1.2150     1.7380 h1         1 GFN       0.053200
     37 H061        -5.0960     0.2220     2.4520 h1         1 GFN       0.053200
     38 H071        -5.8610     0.8850     0.3610 hn         1 GFN       0.400000
     39 H101         0.7370     3.0940    -0.6760 ha         1 GFN       0.154000
     40 H151        -1.3020    -3.5610     0.1690 h1         1 GFN       0.029700
     41 H153        -2.6510    -2.4370     0.4280 h1         1 GFN       0.029700
     42 H152        -1.6640    -2.3160    -1.0400 h1         1 GFN       0.029700
     43 H171         3.9590    -1.5050     0.8300 h4         1 GFN       0.226000
     44 H241         1.3760    -3.0560     1.1130 h1         1 GFN       0.094700
     45 H252         3.5650    -2.8240    -1.0720 hc         1 GFN       0.077700
     46 H251         3.0080    -4.3360    -0.2310 hc         1 GFN       0.077700
     47 H262         0.6610    -3.9200    -1.1230 hc         1 GFN       0.077700
     48 H261         1.2600    -2.3930    -1.9120 hc         1 GFN       0.077700
@<TRIPOS>BOND
     1     1     2 1   
     2     1    28 1   
     3     1    29 1   
     4     1    30 1   
     5     2     3 1   
     6     2     7 1   
     7     2    31 1   
     8     3     4 1   
     9     3    32 1   
    10     3    33 1   
    11     4     5 1   
    12     4     8 1   
    13     5     6 1   
    14     5    34 1   
    15     5    35 1   
    16     6     7 1   
    17     6    36 1   
    18     6    37 1   
    19     7    38 1   
    20     8     9 ar  
    21     8    13 ar  
    22     9    10 ar  
    23     9    27 1   
    24    10    11 ar  
    25    10    39 1   
    26    11    12 ar  
    27    11    19 1   
    28    12    13 ar  
    29    12    16 1   
    30    13    14 1   
    31    14    15 1   
    32    15    40 1   
    33    15    41 1   
    34    15    42 1   
    35    16    17 1   
    36    16    24 1   
    37    17    18 2   
    38    17    43 1   
    39    18    19 1   
    40    18    21 1   
    41    19    20 2   
    42    21    22 1   
    43    21    23 1   
    44    24    25 1   
    45    24    26 1   
    46    24    44 1   
    47    25    26 1   
    48    25    45 1   
    49    25    46 1   
    50    26    47 1   
    51    26    48 1   
@<TRIPOS>SUBSTRUCTURE
     1 GFN         1 TEMP              0 ****  ****    0 ROOT
