@<TRIPOS>MOLECULE
GFN
   48    51     1     0     0
SMALL
No Charge or Current Charge


@<TRIPOS>ATOM
      1 C01         -5.8300    -0.4230    -2.1020 c3         1 GFN      -0.089100
      2 C02         -4.9350    -0.5120    -0.8410 c6         1 GFN       0.159500
      3 C03         -3.5430     0.1760    -1.0700 c6         1 GFN       0.166800
      4 N04         -2.7010     0.1970     0.1670 nh         1 GFN      -0.803400
      5 C05         -3.4370     0.7080     1.3660 c6         1 GFN       0.164800
      6 C06         -4.8340     0.0250     1.5500 c6         1 GFN       0.149800
      7 N07         -5.6710     0.0700     0.3160 n7         1 GFN      -0.857400
      8 C08         -1.3000     0.4440     0.0590 ca         1 GFN       0.187000
      9 C09         -0.8760     1.7540    -0.2790 ca         1 GFN       0.092000
     10 C10          0.4780     2.0810    -0.3390 ca         1 GFN      -0.083000
     11 C11          1.4560     1.1040    -0.0880 ca         1 GFN      -0.181600
     12 C12          1.0920    -0.2140     0.1960 ca         1 GFN       0.303000
     13 C13         -0.2990    -0.5610     0.3050 ca         1 GFN       0.101100
     14 O14         -0.6060    -1.8730     0.6960 os         1 GFN      -0.355100
     15 C15         -1.8670    -2.5330     0.4910 c3         1 GFN       0.172900
     16 N16          2.1290    -1.1730     0.3270 na         1 GFN      -0.629200
     17 C17          3.3840    -0.8260     0.8510 cc         1 GFN       0.020000
     18 C18          3.7940     0.4740     0.5730 cd         1 GFN      -0.300400
     19 C19          2.8950     1.4700    -0.0460 c          1 GFN       0.591900
     20 O20          3.2530     2.5600    -0.4790 o          1 GFN      -0.540100
     21 C21          5.2030     0.8270     0.9100 c          1 GFN       0.728200
     22 O22          5.9140    -0.0450     1.3890 o          1 GFN      -0.712500
     23 O23          5.6220     1.9600     0.7380 o          1 GFN      -0.712500
     24 C24          1.9750    -2.5700    -0.1180 cx         1 GFN       0.188500
     25 C25          2.9010    -3.2670    -1.0860 cx         1 GFN      -0.144400
     26 C26          1.4720    -2.9930    -1.4780 cx         1 GFN      -0.144400
     27 F27         -1.7750     2.7430    -0.5140 f          1 GFN      -0.197000
     28 H011        -5.3360    -0.8880    -2.9640 hc         1 GFN       0.035700
     29 H012        -6.7830    -0.9430    -1.9490 hc         1 GFN       0.035700
     30 H013        -6.0510     0.6180    -2.3650 hc         1 GFN       0.035700
     31 H021        -4.7530    -1.5790    -0.6390 h1         1 GFN       0.063700
     32 H032        -3.0140    -0.3620    -1.8720 h1         1 GFN       0.040700
     33 H031        -3.7090     1.2040    -1.4240 h1         1 GFN       0.040700
     34 H051        -2.8430     0.5350     2.2750 h1         1 GFN       0.044700
     35 H052        -3.5860     1.7940     1.2760 h1         1 GFN       0.044700
     36 H062        -4.6770    -1.0250     1.8400 h1         1 GFN       0.053200
     37 H061        -5.3690     0.5120     2.3790 h1         1 GFN       0.053200
     38 H071        -5.8560     1.0560     0.1000 hn         1 GFN       0.400000
     39 H101         0.7620     3.1080    -0.5610 ha         1 GFN       0.154000
     40 H151        -1.7650    -3.6050     0.7010 h1         1 GFN       0.029700
     41 H153        -2.6350    -2.1420     1.1670 h1         1 GFN       0.029700
     42 H152        -2.2010    -2.4250    -0.5490 h1         1 GFN       0.029700
     43 H171         4.0190    -1.6140     1.2580 h4         1 GFN       0.226000
     44 H241         1.6410    -3.1510     0.7450 h1         1 GFN       0.094700
     45 H252         3.6780    -2.6730    -1.5600 hc         1 GFN       0.077700
     46 H251         3.1810    -4.2930    -0.8630 hc         1 GFN       0.077700
     47 H262         0.7800    -3.8300    -1.5160 hc         1 GFN       0.077700
     48 H261         1.2870    -2.2120    -2.2110 hc         1 GFN       0.077700
@<TRIPOS>BOND
     1     1     2 1   
     2     1    28 1   
     3     1    29 1   
     4     1    30 1   
     5     2     3 1   
     6     2     7 1   
     7     2    31 1   
     8     3     4 1   
     9     3    32 1   
    10     3    33 1   
    11     4     5 1   
    12     4     8 1   
    13     5     6 1   
    14     5    34 1   
    15     5    35 1   
    16     6     7 1   
    17     6    36 1   
    18     6    37 1   
    19     7    38 1   
    20     8     9 ar  
    21     8    13 ar  
    22     9    10 ar  
    23     9    27 1   
    24    10    11 ar  
    25    10    39 1   
    26    11    12 ar  
    27    11    19 1   
    28    12    13 ar  
    29    12    16 1   
    30    13    14 1   
    31    14    15 1   
    32    15    40 1   
    33    15    41 1   
    34    15    42 1   
    35    16    17 1   
    36    16    24 1   
    37    17    18 2   
    38    17    43 1   
    39    18    19 1   
    40    18    21 1   
    41    19    20 2   
    42    21    22 1   
    43    21    23 1   
    44    24    25 1   
    45    24    26 1   
    46    24    44 1   
    47    25    26 1   
    48    25    45 1   
    49    25    46 1   
    50    26    47 1   
    51    26    48 1   
@<TRIPOS>SUBSTRUCTURE
     1 GFN         1 TEMP              0 ****  ****    0 ROOT
