@<TRIPOS>MOLECULE
GFO
   56    60     1     0     0
SMALL
No Charge or Current Charge


@<TRIPOS>ATOM
      1 C13         -7.6910   -29.1310    41.1880 ca         1 GFO      -0.070000
      2 C15         -7.0350   -29.2420    43.5540 ca         1 GFO      -0.043300
      3 C17         -5.2030   -29.4460    45.2910 c3         1 GFO      -0.082767
      4 C20         -7.2470   -27.8470    43.6320 ca         1 GFO      -0.121500
      5 C21         -7.6710   -27.1070    42.5160 ca         1 GFO      -0.070000
      6 C26         -9.5770   -26.8600    30.2770 ca         1 GFO      -0.023000
      7 C28         -8.9330   -28.6580    28.7600 ca         1 GFO      -0.073000
      8 C2          -9.0170   -27.1330    32.5990 ca         1 GFO       0.639900
      9 C4          -9.7800   -25.7300    34.5930 c3         1 GFO       0.205500
     10 C5          -9.5280   -25.6360    36.1080 c2         1 GFO       0.444300
     11 C6          -9.9820   -24.3730    36.8210 c6         1 GFO      -0.274700
     12 C7          -9.3230   -24.2030    38.1890 c          1 GFO       0.559800
     13 C11         -8.3460   -26.9560    40.1040 cc         1 GFO       0.612500
     14 C12         -7.9010   -27.7370    41.2730 ca         1 GFO      -0.144500
     15 C14         -7.2660   -29.8700    42.3060 ca         1 GFO      -0.121500
     16 C16         -6.5660   -30.0190    44.8140 c3         1 GFO      -0.003700
     17 C18         -6.3800   -31.5410    44.5580 c3         1 GFO      -0.082767
     18 C19         -7.6190   -29.8500    45.9420 c3         1 GFO      -0.082767
     19 C23         -8.9230   -26.5600    38.1470 cd         1 GFO       0.628500
     20 C25         -9.5940   -26.3600    31.5860 ca         1 GFO      -0.221000
     21 C27         -8.9760   -28.1130    30.0580 ca         1 GFO      -0.134000
     22 C29         -8.3320   -29.9080    28.5440 ca         1 GFO      -0.130000
     23 C30         -7.7730   -30.6140    29.6210 ca         1 GFO      -0.088000
     24 C31         -7.8170   -30.0670    30.9170 ca         1 GFO      -0.104000
     25 C32         -8.4150   -28.8160    31.1570 ca         1 GFO       0.331000
     26 N1          -8.4410   -28.3170    32.4140 nb         1 GFO      -0.757000
     27 N3          -8.9600   -26.7650    33.9070 nu         1 GFO      -0.950100
     28 N9          -8.9820   -25.3890    38.8470 n          1 GFO      -0.092500
     29 N10         -8.5510   -25.6480    40.1390 nd         1 GFO      -0.471800
     30 N22         -8.5630   -27.5660    38.9000 nc         1 GFO      -0.638000
     31 N24         -9.1440   -26.6830    36.8020 nf         1 GFO      -0.596700
     32 H1          -7.8550   -29.6590    40.2510 ha         1 GFO       0.131500
     33 H2          -4.8290   -29.9980    46.1620 hc         1 GFO       0.036367
     34 H3          -4.4530   -29.5210    44.4950 hc         1 GFO       0.036367
     35 H4          -5.2860   -28.3920    45.5800 hc         1 GFO       0.036367
     36 H5          -7.0830   -27.3190    44.5670 ha         1 GFO       0.115500
     37 H6          -7.8210   -26.0350    42.6270 ha         1 GFO       0.131500
     38 H8          -9.3640   -28.1160    27.9210 ha         1 GFO       0.110000
     39 H9          -9.5810   -24.7490    34.1420 h1         1 GFO       0.054700
     40 H10        -10.8460   -25.9470    34.4370 h1         1 GFO       0.054700
     41 H11         -9.8440   -23.4640    36.2230 hc         1 GFO       0.110200
     42 H12        -11.0550   -24.5010    37.0070 hc         1 GFO       0.110200
     43 H13         -7.1230   -30.9380    42.1740 ha         1 GFO       0.115500
     44 H14         -6.0490   -32.0540    45.4690 hc         1 GFO       0.036367
     45 H15         -7.3220   -32.0070    44.2430 hc         1 GFO       0.036367
     46 H16         -5.6230   -31.7240    43.7850 hc         1 GFO       0.036367
     47 H17         -7.3310   -30.4160    46.8360 hc         1 GFO       0.036367
     48 H18         -7.7310   -28.8010    46.2390 hc         1 GFO       0.036367
     49 H19         -8.6000   -30.2140    45.6130 hc         1 GFO       0.036367
     50 H20        -10.0430   -25.3970    31.8040 ha         1 GFO       0.115000
     51 H21         -8.2990   -30.3300    27.5410 ha         1 GFO       0.114000
     52 H22         -7.3070   -31.5820    29.4550 ha         1 GFO       0.114000
     53 H23         -7.3830   -30.6190    31.7460 ha         1 GFO       0.130000
     54 H24         -8.5680   -27.5070    34.4840 hn         1 GFO       0.536000
     55 O8          -9.0390   -23.0980    38.6310 o          1 GFO      -0.431000
     56 H7         -10.0150   -26.2920    29.4590 ha         1 GFO       0.115000
@<TRIPOS>BOND
     1     1    14 ar  
     2     1    15 ar  
     3     1    32 1   
     4     2     4 ar  
     5     2    15 ar  
     6     2    16 1   
     7     3    16 1   
     8     3    33 1   
     9     3    34 1   
    10     3    35 1   
    11     4     5 ar  
    12     4    36 1   
    13     5    14 ar  
    14     5    37 1   
    15     6    20 ar  
    16     6    21 ar  
    17     6    56 1   
    18     7    21 ar  
    19     7    22 ar  
    20     7    38 1   
    21     8    20 ar  
    22     8    26 ar  
    23     8    27 1   
    24     9    10 1   
    25     9    27 1   
    26     9    39 1   
    27     9    40 1   
    28    10    11 1   
    29    10    31 2   
    30    11    12 1   
    31    11    41 1   
    32    11    42 1   
    33    12    28 1   
    34    12    55 2   
    35    13    14 1   
    36    13    29 2   
    37    13    30 1   
    38    15    43 1   
    39    16    17 1   
    40    16    18 1   
    41    17    44 1   
    42    17    45 1   
    43    17    46 1   
    44    18    47 1   
    45    18    48 1   
    46    18    49 1   
    47    19    28 1   
    48    19    30 2   
    49    19    31 1   
    50    20    50 1   
    51    21    25 ar  
    52    22    23 ar  
    53    22    51 1   
    54    23    24 ar  
    55    23    52 1   
    56    24    25 ar  
    57    24    53 1   
    58    25    26 ar  
    59    27    54 1   
    60    28    29 1   
@<TRIPOS>SUBSTRUCTURE
     1 GFO         1 TEMP              0 ****  ****    0 ROOT
