@<TRIPOS>MOLECULE
GFO
   56    60     1     0     0
SMALL
abcg2


@<TRIPOS>ATOM
      1 C13         -7.4110   -29.1230    41.1860 ca         1 GFO      -0.070000
      2 C15         -7.0310   -29.1910    43.5820 ca         1 GFO      -0.043300
      3 C17         -5.4140   -29.1620    45.4790 c3         1 GFO      -0.082767
      4 C20         -7.4580   -27.8600    43.6380 ca         1 GFO      -0.121500
      5 C21         -7.8550   -27.1750    42.5050 ca         1 GFO      -0.070000
      6 C26         -9.5750   -26.7710    30.4590 ca         1 GFO      -0.023000
      7 C28         -9.1030   -28.4810    28.7180 ca         1 GFO      -0.073000
      8 C2          -9.0040   -27.3300    32.7180 ca         1 GFO       0.639900
      9 C4          -9.4290   -25.7910    34.5970 c3         1 GFO       0.205500
     10 C5          -9.2680   -25.7700    36.0820 c2         1 GFO       0.444300
     11 C6          -9.7180   -24.5200    36.7700 c6         1 GFO      -0.274700
     12 C7          -9.5150   -24.4580    38.2600 c          1 GFO       0.559800
     13 C11         -8.2570   -27.0930    40.0530 cc         1 GFO       0.612500
     14 C12         -7.8370   -27.8020    41.2580 ca         1 GFO      -0.144500
     15 C14         -7.0180   -29.8020    42.3310 ca         1 GFO      -0.121500
     16 C16         -6.6040   -29.9060    44.8580 c3         1 GFO      -0.003700
     17 C18         -6.1840   -31.3530    44.6000 c3         1 GFO      -0.082767
     18 C19         -7.7730   -29.9130    45.8520 c3         1 GFO      -0.082767
     19 C23         -8.6460   -26.7270    38.0290 cd         1 GFO       0.628500
     20 C25         -9.5370   -26.4060    31.7660 ca         1 GFO      -0.221000
     21 C27         -9.0920   -28.0410    30.0570 ca         1 GFO      -0.134000
     22 C29         -8.6190   -29.7210    28.3900 ca         1 GFO      -0.130000
     23 C30         -8.1070   -30.5600    29.4000 ca         1 GFO      -0.088000
     24 C31         -8.0850   -30.1540    30.7090 ca         1 GFO      -0.104000
     25 C32         -8.5790   -28.8800    31.0760 ca         1 GFO       0.331000
     26 N1          -8.5450   -28.5150    32.3750 nb         1 GFO      -0.757000
     27 N3          -8.9470   -27.0100    34.0320 nu         1 GFO      -0.950100
     28 N9          -8.9860   -25.6340    38.7720 n          1 GFO      -0.092500
     29 N10         -8.7330   -25.8730    40.0700 nd         1 GFO      -0.471800
     30 N22         -8.1870   -27.6560    38.8090 nc         1 GFO      -0.638000
     31 N24         -8.7770   -26.7900    36.6710 nf         1 GFO      -0.596700
     32 H1          -7.3880   -29.6340    40.2320 ha         1 GFO       0.131500
     33 H2          -5.0960   -29.6640    46.3950 hc         1 GFO       0.036367
     34 H3          -4.5630   -29.1370    44.7970 hc         1 GFO       0.036367
     35 H4          -5.6670   -28.1330    45.7380 hc         1 GFO       0.036367
     36 H5          -7.4840   -27.3360    44.5860 ha         1 GFO       0.115500
     37 H6          -8.1780   -26.1460    42.5930 ha         1 GFO       0.131500
     38 H8          -9.4990   -27.8240    27.9530 ha         1 GFO       0.110000
     39 H9          -8.9040   -24.9130    34.1980 h1         1 GFO       0.054700
     40 H10        -10.4940   -25.6220    34.3830 h1         1 GFO       0.054700
     41 H11         -9.2220   -23.6550    36.3170 hc         1 GFO       0.110200
     42 H12        -10.7860   -24.3730    36.5710 hc         1 GFO       0.110200
     43 H13         -6.6990   -30.8300    42.2250 ha         1 GFO       0.115500
     44 H14         -5.8870   -31.8190    45.5400 hc         1 GFO       0.036367
     45 H15         -6.9990   -31.9480    44.1840 hc         1 GFO       0.036367
     46 H16         -5.3330   -31.4180    43.9200 hc         1 GFO       0.036367
     47 H17         -7.4790   -30.4230    46.7710 hc         1 GFO       0.036367
     48 H18         -8.0870   -28.9040    46.1230 hc         1 GFO       0.036367
     49 H19         -8.6390   -30.4350    45.4400 hc         1 GFO       0.036367
     50 H20         -9.9030   -25.4360    32.0740 ha         1 GFO       0.115000
     51 H21         -8.6280   -30.0580    27.3630 ha         1 GFO       0.114000
     52 H22         -7.7250   -31.5380    29.1360 ha         1 GFO       0.114000
     53 H23         -7.6910   -30.7990    31.4850 ha         1 GFO       0.130000
     54 H24         -8.5860   -27.7070    34.6650 hn         1 GFO       0.536000
     55 O8          -9.7790   -23.5140    38.9490 o          1 GFO      -0.431000
     56 H7          -9.9750   -26.0930    29.7140 ha         1 GFO       0.115000
@<TRIPOS>BOND
     1     1    14 ar  
     2     1    15 ar  
     3     1    32 1   
     4     2     4 ar  
     5     2    15 ar  
     6     2    16 1   
     7     3    16 1   
     8     3    33 1   
     9     3    34 1   
    10     3    35 1   
    11     4     5 ar  
    12     4    36 1   
    13     5    14 ar  
    14     5    37 1   
    15     6    20 ar  
    16     6    21 ar  
    17     6    56 1   
    18     7    21 ar  
    19     7    22 ar  
    20     7    38 1   
    21     8    20 ar  
    22     8    26 ar  
    23     8    27 1   
    24     9    10 1   
    25     9    27 1   
    26     9    39 1   
    27     9    40 1   
    28    10    11 1   
    29    10    31 2   
    30    11    12 1   
    31    11    41 1   
    32    11    42 1   
    33    12    28 1   
    34    12    55 2   
    35    13    14 1   
    36    13    29 2   
    37    13    30 1   
    38    15    43 1   
    39    16    17 1   
    40    16    18 1   
    41    17    44 1   
    42    17    45 1   
    43    17    46 1   
    44    18    47 1   
    45    18    48 1   
    46    18    49 1   
    47    19    28 1   
    48    19    30 2   
    49    19    31 1   
    50    20    50 1   
    51    21    25 ar  
    52    22    23 ar  
    53    22    51 1   
    54    23    24 ar  
    55    23    52 1   
    56    24    25 ar  
    57    24    53 1   
    58    25    26 ar  
    59    27    54 1   
    60    28    29 1   
@<TRIPOS>SUBSTRUCTURE
     1 GFO         1 TEMP              0 ****  ****    0 ROOT
