@<TRIPOS>MOLECULE
GFQ
   49    50     1     0     0
SMALL
bcc


@<TRIPOS>ATOM
      1 C4           7.0270    -1.9010     0.5260 c3         1 GFQ      -0.073400
      2 C14         -1.2660     0.1590     0.3850 ca         1 GFQ      -0.095000
      3 C5           6.0240    -0.9460    -0.1080 c3         1 GFQ      -0.073400
      4 C6           5.2740    -0.1360     0.9530 c3         1 GFQ      -0.116700
      5 C11         -0.0560     2.3650    -0.7630 ca         1 GFQ      -0.117000
      6 C7           4.2170     0.7390     0.3710 cc         1 GFQ       0.446700
      7 C8           2.2080     1.4680    -0.2000 cd         1 GFQ       0.402800
      8 C9           2.9490     2.4380    -0.8100 cc         1 GFQ      -0.193400
      9 C10          0.7440     1.3690    -0.1960 ca         1 GFQ      -0.091500
     10 C12         -1.4330     2.2550    -0.7630 ca         1 GFQ      -0.095000
     11 C13         -2.0590     1.1560    -0.1770 ca         1 GFQ      -0.148600
     12 N1           2.9470     0.5200     0.4580 nd         1 GFQ      -0.645000
     13 N2          -4.1430     0.3460     0.7350 ns         1 GFQ      -0.575900
     14 C3           8.8960    -3.5450     0.2820 c3         1 GFQ      -0.088100
     15 C1           6.9870    -3.6150    -1.3410 c3         1 GFQ      -0.088100
     16 C2           7.8570    -2.7170    -0.4670 c3         1 GFQ      -0.059700
     17 S1           4.6140     2.1530    -0.5480 ss         1 GFQ      -0.174300
     18 C15          0.1150     0.2620     0.3740 ca         1 GFQ      -0.117000
     19 C16         -3.5500     1.0850    -0.2190 c          1 GFQ       0.679700
     20 O1          -4.1870     1.6840    -1.0760 o          1 GFQ      -0.597100
     21 C17         -5.5710     0.1490     0.7860 c3         1 GFQ       0.112000
     22 C18         -6.0130    -0.9640    -0.1670 c3         1 GFQ      -0.178400
     23 C19         -7.4950    -1.2120    -0.1340 c3         1 GFQ       0.666900
     24 F1          -7.8610    -2.1790    -0.9870 f          1 GFQ      -0.238967
     25 F2          -7.9230    -1.5880     1.0830 f          1 GFQ      -0.238967
     26 F3          -8.2040    -0.1190    -0.4630 f          1 GFQ      -0.238967
     27 H1           7.7070    -1.3260     1.1640 hc         1 GFQ       0.039200
     28 H2           6.4960    -2.5910     1.1940 hc         1 GFQ       0.039200
     29 H3          -1.7090    -0.7300     0.8160 ha         1 GFQ       0.141000
     30 H4           6.5440    -0.2670    -0.7910 hc         1 GFQ       0.047200
     31 H5           5.2980    -1.4970    -0.7100 hc         1 GFQ       0.047200
     32 H6           4.7850    -0.8130     1.6560 hc         1 GFQ       0.065200
     33 H7           5.9830     0.4660     1.5260 hc         1 GFQ       0.065200
     34 H8           0.3960     3.2410    -1.2100 ha         1 GFQ       0.145000
     35 H9           2.6140     3.2860    -1.3850 h4         1 GFQ       0.181000
     36 H10         -2.0270     3.0380    -1.2140 ha         1 GFQ       0.141000
     37 H11         -3.5890    -0.0830     1.4570 hn         1 GFQ       0.321500
     38 H12          8.4120    -4.2600     0.9530 hc         1 GFQ       0.033033
     39 H13          9.5260    -4.1120    -0.4060 hc         1 GFQ       0.033033
     40 H14          9.5500    -2.9140     0.8860 hc         1 GFQ       0.033033
     41 H15          6.3830    -4.2870    -0.7270 hc         1 GFQ       0.033033
     42 H16          6.3070    -3.0430    -1.9730 hc         1 GFQ       0.033033
     43 H17          7.6010    -4.2310    -2.0010 hc         1 GFQ       0.033033
     44 H18          8.3880    -2.0140    -1.1200 hc         1 GFQ       0.044700
     45 H19          0.7090    -0.5300     0.8080 ha         1 GFQ       0.145000
     46 H20         -5.8270    -0.1010     1.8140 h1         1 GFQ       0.067700
     47 H21         -6.0720     1.0850     0.5420 h1         1 GFQ       0.067700
     48 H22         -5.7330    -0.7110    -1.1900 hc         1 GFQ       0.088200
     49 H23         -5.5050    -1.8960     0.0910 hc         1 GFQ       0.088200
@<TRIPOS>BOND
     1     1     3 1   
     2     1    16 1   
     3     1    27 1   
     4     1    28 1   
     5     2    11 ar  
     6     2    18 ar  
     7     2    29 1   
     8     3     4 1   
     9     3    30 1   
    10     3    31 1   
    11     4     6 1   
    12     4    32 1   
    13     4    33 1   
    14     5     9 ar  
    15     5    10 ar  
    16     5    34 1   
    17     6    12 2   
    18     6    17 1   
    19     7     8 2   
    20     7     9 1   
    21     7    12 1   
    22     8    17 1   
    23     8    35 1   
    24     9    18 ar  
    25    10    11 ar  
    26    10    36 1   
    27    11    19 1   
    28    13    19 1   
    29    13    21 1   
    30    13    37 1   
    31    14    16 1   
    32    14    38 1   
    33    14    39 1   
    34    14    40 1   
    35    15    16 1   
    36    15    41 1   
    37    15    42 1   
    38    15    43 1   
    39    16    44 1   
    40    18    45 1   
    41    19    20 2   
    42    21    22 1   
    43    21    46 1   
    44    21    47 1   
    45    22    23 1   
    46    22    48 1   
    47    22    49 1   
    48    23    24 1   
    49    23    25 1   
    50    23    26 1   
@<TRIPOS>SUBSTRUCTURE
     1 GFQ         1 TEMP              0 ****  ****    0 ROOT
