@<TRIPOS>MOLECULE
GFQ
   49    50     1     0     0
SMALL
No Charge or Current Charge


@<TRIPOS>ATOM
      1 C4           7.1420    -1.8400     0.4950 c3         1 GFQ      -0.073400
      2 C14         -1.2600     0.2790     0.6280 ca         1 GFQ      -0.077000
      3 C5           5.9970    -0.9890    -0.1050 c3         1 GFQ      -0.073400
      4 C6           5.4450     0.0630     0.8840 c3         1 GFQ      -0.116700
      5 C11         -0.0430     2.3670    -0.7920 ca         1 GFQ      -0.099000
      6 C7           4.3290     0.8890     0.3060 cc         1 GFQ       0.446700
      7 C8           2.2540     1.5300    -0.1730 cd         1 GFQ       0.337500
      8 C9           2.9600     2.5110    -0.8380 cc         1 GFQ      -0.255000
      9 C10          0.7740     1.4270    -0.1280 ca         1 GFQ      -0.091500
     10 C12         -1.4440     2.2660    -0.7480 ca         1 GFQ      -0.077000
     11 C13         -2.0770     1.2220    -0.0380 ca         1 GFQ      -0.148600
     12 N1           3.0490     0.5990     0.4840 nd         1 GFQ      -0.645000
     13 N2          -4.1500     0.1080     0.7020 ns         1 GFQ      -0.508900
     14 C3           9.0390    -3.5100     0.1420 c3         1 GFQ      -0.088100
     15 C1           6.8150    -3.9010    -1.0320 c3         1 GFQ      -0.088100
     16 C2           7.8030    -2.8360    -0.4960 c3         1 GFQ      -0.059700
     17 S1           4.6770     2.2970    -0.6610 ss         1 GFQ      -0.029400
     18 C15          0.1410     0.3820     0.5820 ca         1 GFQ      -0.099000
     19 C16         -3.5910     1.1470    -0.0140 c          1 GFQ       0.612700
     20 O1          -4.2930     1.9630    -0.5960 o          1 GFQ      -0.597100
     21 C17         -5.5870    -0.1490     0.8220 c3         1 GFQ       0.112000
     22 C18         -6.1470    -0.8540    -0.4310 c3         1 GFQ      -0.178400
     23 C19         -7.6550    -1.1640    -0.3470 c3         1 GFQ       0.303000
     24 F1          -8.0760    -1.7770    -1.4760 f          1 GFQ      -0.117667
     25 F2          -7.9270    -1.9800     0.6960 f          1 GFQ      -0.117667
     26 F3          -8.3780    -0.0310    -0.1950 f          1 GFQ      -0.117667
     27 H1           7.9150    -1.1590     0.8740 hc         1 GFQ       0.039200
     28 H2           6.7620    -2.3920     1.3640 hc         1 GFQ       0.039200
     29 H3          -1.6910    -0.5460     1.1890 ha         1 GFQ       0.123000
     30 H4           6.3600    -0.4790    -1.0070 hc         1 GFQ       0.047200
     31 H5           5.1730    -1.6420    -0.4150 hc         1 GFQ       0.047200
     32 H6           5.0910    -0.4450     1.7900 hc         1 GFQ       0.065200
     33 H7           6.2580     0.7270     1.1990 hc         1 GFQ       0.065200
     34 H8           0.3960     3.1890    -1.3520 ha         1 GFQ       0.127000
     35 H9           2.5920     3.3430    -1.4200 h4         1 GFQ       0.163000
     36 H10         -2.0400     3.0100    -1.2730 ha         1 GFQ       0.123000
     37 H11         -3.5090    -0.5240     1.1640 hn         1 GFQ       0.321500
     38 H12          8.7510    -4.1100     1.0140 hc         1 GFQ       0.033033
     39 H13          9.5370    -4.1700    -0.5790 hc         1 GFQ       0.033033
     40 H14          9.7680    -2.7580     0.4670 hc         1 GFQ       0.033033
     41 H15          6.3640    -4.4650    -0.2070 hc         1 GFQ       0.033033
     42 H16          6.0120    -3.4390    -1.6170 hc         1 GFQ       0.033033
     43 H17          7.3320    -4.6110    -1.6890 hc         1 GFQ       0.033033
     44 H18          8.1620    -2.2590    -1.3580 hc         1 GFQ       0.044700
     45 H19          0.7340    -0.3630     1.1070 ha         1 GFQ       0.127000
     46 H20         -5.7550    -0.7770     1.7080 h1         1 GFQ       0.067700
     47 H21         -6.1100     0.8040     0.9830 h1         1 GFQ       0.067700
     48 H22         -5.9660    -0.2260    -1.3110 hc         1 GFQ       0.088200
     49 H23         -5.6010    -1.7910    -0.5910 hc         1 GFQ       0.088200
@<TRIPOS>BOND
     1     1     3 1   
     2     1    16 1   
     3     1    27 1   
     4     1    28 1   
     5     2    11 ar  
     6     2    18 ar  
     7     2    29 1   
     8     3     4 1   
     9     3    30 1   
    10     3    31 1   
    11     4     6 1   
    12     4    32 1   
    13     4    33 1   
    14     5     9 ar  
    15     5    10 ar  
    16     5    34 1   
    17     6    12 2   
    18     6    17 1   
    19     7     8 2   
    20     7     9 1   
    21     7    12 1   
    22     8    17 1   
    23     8    35 1   
    24     9    18 ar  
    25    10    11 ar  
    26    10    36 1   
    27    11    19 1   
    28    13    19 1   
    29    13    21 1   
    30    13    37 1   
    31    14    16 1   
    32    14    38 1   
    33    14    39 1   
    34    14    40 1   
    35    15    16 1   
    36    15    41 1   
    37    15    42 1   
    38    15    43 1   
    39    16    44 1   
    40    18    45 1   
    41    19    20 2   
    42    21    22 1   
    43    21    46 1   
    44    21    47 1   
    45    22    23 1   
    46    22    48 1   
    47    22    49 1   
    48    23    24 1   
    49    23    25 1   
    50    23    26 1   
@<TRIPOS>SUBSTRUCTURE
     1 GFQ         1 TEMP              0 ****  ****    0 ROOT
