@<TRIPOS>MOLECULE
GFR
   50    52     1     0     0
SMALL
bcc


@<TRIPOS>ATOM
      1 CAY       -150.6460    24.5910    14.3290 c3         1 GFR       0.122700
      2 OAX       -150.7330    23.4880    15.2050 os         1 GFR      -0.296900
      3 CAV       -151.8310    22.7070    15.1360 ca         1 GFR       0.107100
      4 CAW       -152.8840    22.8910    14.2520 ca         1 GFR      -0.179000
      5 CAU       -151.8790    21.6410    16.0500 ca         1 GFR       0.113100
      6 OAZ       -150.8280    21.5000    16.8840 oh         1 GFR      -0.475100
      7 CAT       -152.9820    20.8030    16.0530 ca         1 GFR      -0.198000
      8 CAS       -154.0300    20.9950    15.1600 ca         1 GFR      -0.096000
      9 CAR       -153.9860    22.0360    14.2470 ca         1 GFR      -0.092300
     10 CAN       -155.0630    22.2340    13.2160 c5         1 GFR       0.195400
     11 CAO       -155.0010    21.2270    12.0610 c5         1 GFR      -0.096700
     12 CAP       -153.9560    21.5840    11.0250 c3         1 GFR       0.150400
     13 OAQ       -153.9980    20.6220     9.9950 oh         1 GFR      -0.597800
     14 OAM       -156.3550    22.0840    13.7790 os         1 GFR      -0.408600
     15 CAL       -157.1580    21.2490    12.9540 c5         1 GFR       0.126400
     16 CAK       -156.4630    21.1810    11.5990 c5         1 GFR      -0.081700
     17 CAJ       -156.8500    22.3290    10.6560 c3         1 GFR      -0.021100
     18 CAE       -158.3020    22.3060    10.2640 ca         1 GFR      -0.085300
     19 CAD       -159.1990    23.2360    10.7930 ca         1 GFR      -0.167000
     20 CAF       -158.7830    21.3570     9.3730 ca         1 GFR      -0.121000
     21 CAG       -160.1260    21.3270     9.0180 ca         1 GFR      -0.141000
     22 CAH       -161.0150    22.2500     9.5420 ca         1 GFR       0.118100
     23 OAI       -162.3140    22.2020     9.1740 oh         1 GFR      -0.496100
     24 CAC       -160.5410    23.2180    10.4410 ca         1 GFR       0.047100
     25 OAB       -161.4790    24.0810    10.8930 os         1 GFR      -0.344900
     26 CAA       -161.0920    25.0780    11.8150 c3         1 GFR       0.133700
     27 H1        -149.7030    25.0860    14.5480 h1         1 GFR       0.038700
     28 H2        -150.6470    24.2850    13.2800 h1         1 GFR       0.038700
     29 H3        -151.4610    25.3040    14.4860 h1         1 GFR       0.038700
     30 H4        -152.8610    23.7150    13.5490 ha         1 GFR       0.133000
     31 H5        -150.9720    20.7470    17.4690 ho         1 GFR       0.420000
     32 H6        -153.0260    19.9840    16.7630 ha         1 GFR       0.133000
     33 H7        -154.8760    20.3190    15.1840 ha         1 GFR       0.141000
     34 H8        -154.9640    23.2530    12.8110 h1         1 GFR       0.046700
     35 H9        -154.7500    20.2440    12.4770 hc         1 GFR       0.075700
     36 H10       -154.1390    22.5970    10.6430 h1         1 GFR       0.022200
     37 H11       -152.9700    21.6090    11.5100 h1         1 GFR       0.022200
     38 H12       -153.3440    20.8620     9.3330 ho         1 GFR       0.405000
     39 H13       -157.2340    20.2470    13.3930 h1         1 GFR       0.050700
     40 H14       -158.1670    21.6640    12.8990 h1         1 GFR       0.050700
     41 H15       -156.6890    20.2320    11.1070 hc         1 GFR       0.077700
     42 H16       -156.6090    23.2940    11.1100 hc         1 GFR       0.050700
     43 H17       -156.2400    22.2570     9.7520 hc         1 GFR       0.050700
     44 H18       -158.8270    23.9820    11.4840 ha         1 GFR       0.136000
     45 H19       -158.1070    20.6290     8.9410 ha         1 GFR       0.137000
     46 H20       -160.4910    20.5830     8.3190 ha         1 GFR       0.148000
     47 H21       -162.8100    22.8970     9.6230 ho         1 GFR       0.441000
     48 H22       -161.9880    25.6490    12.0480 h1         1 GFR       0.042033
     49 H23       -160.6980    24.6470    12.7390 h1         1 GFR       0.042033
     50 H24       -160.3440    25.7530    11.3920 h1         1 GFR       0.042033
@<TRIPOS>BOND
     1     1     2 1   
     2     1    27 1   
     3     1    28 1   
     4     1    29 1   
     5     2     3 1   
     6     3     4 ar  
     7     3     5 ar  
     8     4     9 ar  
     9     4    30 1   
    10     5     6 1   
    11     5     7 ar  
    12     6    31 1   
    13     7     8 ar  
    14     7    32 1   
    15     8     9 ar  
    16     8    33 1   
    17     9    10 1   
    18    10    11 1   
    19    10    14 1   
    20    10    34 1   
    21    11    12 1   
    22    11    16 1   
    23    11    35 1   
    24    12    13 1   
    25    12    36 1   
    26    12    37 1   
    27    13    38 1   
    28    14    15 1   
    29    15    16 1   
    30    15    39 1   
    31    15    40 1   
    32    16    17 1   
    33    16    41 1   
    34    17    18 1   
    35    17    42 1   
    36    17    43 1   
    37    18    19 ar  
    38    18    20 ar  
    39    19    24 ar  
    40    19    44 1   
    41    20    21 ar  
    42    20    45 1   
    43    21    22 ar  
    44    21    46 1   
    45    22    23 1   
    46    22    24 ar  
    47    23    47 1   
    48    24    25 1   
    49    25    26 1   
    50    26    48 1   
    51    26    49 1   
    52    26    50 1   
@<TRIPOS>SUBSTRUCTURE
     1 GFR         1 TEMP              0 ****  ****    0 ROOT
