@<TRIPOS>MOLECULE
GFR
   50    52     1     0     0
SMALL
No Charge or Current Charge


@<TRIPOS>ATOM
      1 CAY        150.3570    24.4820    14.2910 c3         1 GFR       0.145900
      2 OAX       -150.6420    23.4300    15.2300 os         1 GFR      -0.320100
      3 CAV        151.8130    22.6900    15.1880 ca         1 GFR       0.107100
      4 CAW       -152.8100    22.9260    14.2130 ca         1 GFR      -0.161000
      5 CAU        152.0110    21.6700    16.1500 ca         1 GFR       0.113100
      6 OAZ       -151.0670    21.4130    17.1090 oh         1 GFR      -0.514100
      7 CAT        153.1880    20.9040    16.1280 ca         1 GFR      -0.180000
      8 CAS       -154.1710    21.1470    15.1550 ca         1 GFR      -0.078000
      9 CAR        153.9930    22.1580    14.1880 ca         1 GFR      -0.092300
     10 CAN       -155.0520    22.4300    13.1150 c5         1 GFR       0.218600
     11 CAO        154.9360    21.3150    12.0300 c5         1 GFR      -0.096700
     12 CAP       -153.8430    21.5670    10.9650 c3         1 GFR       0.173600
     13 OAQ        153.8350    20.5070    10.0020 oh         1 GFR      -0.660000
     14 OAM       -156.3950    22.3170    13.6500 os         1 GFR      -0.455000
     15 CAL        157.1060    21.2920    12.9170 c5         1 GFR       0.149600
     16 CAK       -156.4130    21.2550    11.5280 c5         1 GFR      -0.081700
     17 CAJ        156.8640    22.3950    10.5680 c3         1 GFR      -0.021100
     18 CAE       -158.3420    22.3260    10.2040 ca         1 GFR      -0.085300
     19 CAD        159.2660    23.2020    10.8090 ca         1 GFR      -0.149000
     20 CAF       -158.7930    21.3790     9.2640 ca         1 GFR      -0.103000
     21 CAG        160.1560    21.3060     8.9280 ca         1 GFR      -0.123000
     22 CAH       -161.0740    22.1790     9.5320 ca         1 GFR       0.118100
     23 OAI        162.3970    22.1060     9.2060 oh         1 GFR      -0.535100
     24 CAC       -160.6380    23.1320    10.4760 ca         1 GFR       0.047100
     25 OAB        161.5850    23.9680    11.0450 os         1 GFR      -0.368100
     26 CAA       -161.2390    24.9670    12.0230 c3         1 GFR       0.156900
     27 H1         149.3800    24.9310    14.5090 h1         1 GFR       0.038700
     28 H2        -150.3310    24.0920    13.2650 h1         1 GFR       0.038700
     29 H3         151.1150    25.2730    14.3500 h1         1 GFR       0.038700
     30 H4        -152.6820    23.7010    13.4630 ha         1 GFR       0.115000
     31 H5         151.3880    20.6790    17.6740 ho         1 GFR       0.459000
     32 H6        -153.3490    20.1190    16.8630 ha         1 GFR       0.115000
     33 H7         155.0770    20.5440    15.1520 ha         1 GFR       0.123000
     34 H8        -154.9380    23.4330    12.6820 h1         1 GFR       0.046700
     35 H9         154.6730    20.3590    12.4980 hc         1 GFR       0.075700
     36 H10       -154.0230    22.5320    10.4730 h1         1 GFR       0.022200
     37 H11        152.8680    21.6270    11.4660 h1         1 GFR       0.022200
     38 H12       -153.1160    20.7070     9.3630 ho         1 GFR       0.444000
     39 H13        156.9900    20.3360    13.4460 h1         1 GFR       0.050700
     40 H14       -158.1760    21.5330    12.8690 h1         1 GFR       0.050700
     41 H15        156.6170    20.3070    11.0170 hc         1 GFR       0.077700
     42 H16       -156.6370    23.3750    11.0040 hc         1 GFR       0.050700
     43 H17        156.2740    22.3450     9.6440 hc         1 GFR       0.050700
     44 H18       -158.9040    23.9240    11.5350 ha         1 GFR       0.118000
     45 H19        158.0860    20.6980     8.7930 ha         1 GFR       0.119000
     46 H20       -160.4990    20.5730     8.2020 ha         1 GFR       0.130000
     47 H21        162.8510    22.7980     9.7390 ho         1 GFR       0.480000
     48 H22       -162.1350    25.5140    12.3410 h1         1 GFR       0.042033
     49 H23        160.7890    24.5050    12.9110 h1         1 GFR       0.042033
     50 H24       -160.5290    25.6920    11.6050 h1         1 GFR       0.042033
@<TRIPOS>BOND
     1     1     2 1   
     2     1    27 1   
     3     1    28 1   
     4     1    29 1   
     5     2     3 1   
     6     3     4 ar  
     7     3     5 ar  
     8     4     9 ar  
     9     4    30 1   
    10     5     6 1   
    11     5     7 ar  
    12     6    31 1   
    13     7     8 ar  
    14     7    32 1   
    15     8     9 ar  
    16     8    33 1   
    17     9    10 1   
    18    10    11 1   
    19    10    14 1   
    20    10    34 1   
    21    11    12 1   
    22    11    16 1   
    23    11    35 1   
    24    12    13 1   
    25    12    36 1   
    26    12    37 1   
    27    13    38 1   
    28    14    15 1   
    29    15    16 1   
    30    15    39 1   
    31    15    40 1   
    32    16    17 1   
    33    16    41 1   
    34    17    18 1   
    35    17    42 1   
    36    17    43 1   
    37    18    19 ar  
    38    18    20 ar  
    39    19    24 ar  
    40    19    44 1   
    41    20    21 ar  
    42    20    45 1   
    43    21    22 ar  
    44    21    46 1   
    45    22    23 1   
    46    22    24 ar  
    47    23    47 1   
    48    24    25 1   
    49    25    26 1   
    50    26    48 1   
    51    26    49 1   
    52    26    50 1   
@<TRIPOS>SUBSTRUCTURE
     1 GFR         1 TEMP              0 ****  ****    0 ROOT
