@<TRIPOS>MOLECULE
GFS
   44    48     1     0     0
SMALL
No Charge or Current Charge


@<TRIPOS>ATOM
      1 C21          3.6200     6.1060    20.6270 cc         1 GFS      -0.055400
      2 C22          2.4970     6.1940    21.4460 cd         1 GFS      -0.142400
      3 C23          4.8040     6.5100    21.3640 ca         1 GFS      -0.064800
      4 C24          4.5490     6.8490    22.6790 ca         1 GFS      -0.157000
      5 C1           2.0220     7.2780    18.1090 ca         1 GFS      -0.075300
      6 C2           3.5120     7.0140    18.2600 c5         1 GFS      -0.116400
      7 SG           2.8430     6.7040    23.1220 ss         1 GFS       0.007400
      8 C3           1.1870     6.1920    18.3480 ca         1 GFS      -0.081000
      9 C4           1.4670     8.5170    17.7420 ca         1 GFS      -0.077000
     10 C5           4.1940     6.6950    16.9030 c          1 GFS       0.625700
     11 C6           3.5730     5.7200    19.1530 c5         1 GFS       0.134500
     12 S7           2.0260     4.7060    18.8200 ss         1 GFS      -0.124000
     13 C8          -0.2060     6.2970    18.2220 ca         1 GFS      -0.103000
     14 C9           0.0700     8.6420    17.6150 ca         1 GFS      -0.130000
     15 C10          5.4260     7.5500    16.6980 ca         1 GFS      -0.148600
     16 O11          3.8170     5.8730    16.0760 o          1 GFS      -0.480100
     17 C12         -0.7660     7.5330    17.8520 ca         1 GFS      -0.108000
     18 C13          6.6950     6.9540    16.4560 ca         1 GFS      -0.094600
     19 C14          5.3130     8.9590    16.6950 ca         1 GFS      -0.120000
     20 C15          7.8130     7.7840    16.2200 ca         1 GFS      -0.095000
     21 C16          6.8880     5.4510    16.4700 c          1 GFS       0.714600
     22 C17          6.4360     9.7680    16.4660 ca         1 GFS      -0.146000
     23 C18          7.6850     9.1810    16.2270 ca         1 GFS      -0.128000
     24 O19          7.5480     4.9450    15.5730 o          1 GFS      -0.707500
     25 O20          6.4380     4.8220    17.4160 o          1 GFS      -0.707500
     26 C29          5.5740     7.2690    23.5400 ca         1 GFS      -0.096000
     27 C30          6.8880     7.3460    23.0420 ca         1 GFS      -0.109000
     28 C31          7.1570     7.0070    21.7000 ca         1 GFS      -0.119000
     29 C32          6.1130     6.5860    20.8510 ca         1 GFS      -0.055000
     30 H1           1.4660     5.9980    21.1780 h4         1 GFS       0.227000
     31 H2           4.0380     7.8390    18.7530 hc         1 GFS       0.079700
     32 H3           2.1060     9.3760    17.5590 ha         1 GFS       0.108000
     33 H4           4.4500     5.0990    18.9280 h1         1 GFS       0.155700
     34 H5          -0.8440     5.4370    18.4110 ha         1 GFS       0.114000
     35 H6          -0.3650     9.5980    17.3320 ha         1 GFS       0.101000
     36 H7          -1.8440     7.6330    17.7520 ha         1 GFS       0.098000
     37 H8           4.3480     9.4320    16.8580 ha         1 GFS       0.091000
     38 H9           8.7890     7.3380    16.0380 ha         1 GFS       0.130000
     39 H10          6.3350    10.8510    16.4670 ha         1 GFS       0.090000
     40 H11          8.5560     9.8080    16.0470 ha         1 GFS       0.090000
     41 H13          5.3570     7.5330    24.5730 ha         1 GFS       0.109000
     42 H14          7.6970     7.6710    23.6930 ha         1 GFS       0.102000
     43 H15          8.1730     7.0700    21.3170 ha         1 GFS       0.116000
     44 H16          6.3260     6.3290    19.8170 ha         1 GFS       0.149000
@<TRIPOS>BOND
     1     1     2 2   
     2     1     3 1   
     3     1    11 1   
     4     2     7 1   
     5     2    30 1   
     6     3     4 ar  
     7     3    29 ar  
     8     4     7 1   
     9     4    26 ar  
    10     5     6 1   
    11     5     8 ar  
    12     5     9 ar  
    13     6    10 1   
    14     6    11 1   
    15     6    31 1   
    16     8    12 1   
    17     8    13 ar  
    18     9    14 ar  
    19     9    32 1   
    20    10    15 1   
    21    10    16 2   
    22    11    12 1   
    23    11    33 1   
    24    13    17 ar  
    25    13    34 1   
    26    14    17 ar  
    27    14    35 1   
    28    15    18 ar  
    29    15    19 ar  
    30    17    36 1   
    31    18    20 ar  
    32    18    21 1   
    33    19    22 ar  
    34    19    37 1   
    35    20    23 ar  
    36    20    38 1   
    37    21    24 1   
    38    21    25 1   
    39    22    23 ar  
    40    22    39 1   
    41    23    40 1   
    42    26    27 ar  
    43    26    41 1   
    44    27    28 ar  
    45    27    42 1   
    46    28    29 ar  
    47    28    43 1   
    48    29    44 1   
@<TRIPOS>SUBSTRUCTURE
     1 GFS         1 TEMP              0 ****  ****    0 ROOT
