@<TRIPOS>MOLECULE
GFS
   44    48     1     0     0
SMALL
abcg2


@<TRIPOS>ATOM
      1 C21          3.7090     6.2090    20.5270 cc         1 GFS      -0.055400
      2 C22          2.7140     6.0370    21.4260 cd         1 GFS      -0.142400
      3 C23          4.8830     6.7890    21.1340 ca         1 GFS      -0.064800
      4 C24          4.7010     7.0390    22.5050 ca         1 GFS      -0.157000
      5 C1           1.8440     7.2850    18.1030 ca         1 GFS      -0.075300
      6 C2           3.3310     7.2090    18.2520 c5         1 GFS      -0.116400
      7 SG           3.1190     6.5580    23.0230 ss         1 GFS       0.007400
      8 C3           1.1980     6.0610    18.2400 ca         1 GFS      -0.081000
      9 C4           1.1080     8.4180    17.8040 ca         1 GFS      -0.077000
     10 C5           4.0450     7.1930    16.8990 c          1 GFS       0.625700
     11 C6           3.6390     5.9180    19.0580 c5         1 GFS       0.134500
     12 S7           2.3010     4.7490    18.6260 ss         1 GFS      -0.124000
     13 C8          -0.1740     5.9470    18.0730 ca         1 GFS      -0.103000
     14 C9          -0.2700     8.3220    17.6360 ca         1 GFS      -0.130000
     15 C10          5.4920     7.5860    16.9340 ca         1 GFS      -0.148600
     16 O11          3.4630     6.9880    15.8650 o          1 GFS      -0.480100
     17 C12         -0.9020     7.0920    17.7650 ca         1 GFS      -0.108000
     18 C13          6.5240     6.7570    16.4860 ca         1 GFS      -0.094600
     19 C14          5.7740     8.8840    17.3570 ca         1 GFS      -0.120000
     20 C15          7.8230     7.2570    16.4830 ca         1 GFS      -0.095000
     21 C16          6.2800     5.3110    16.0720 c          1 GFS       0.714600
     22 C17          7.0740     9.3660    17.3520 ca         1 GFS      -0.146000
     23 C18          8.1040     8.5430    16.9210 ca         1 GFS      -0.128000
     24 O19          7.0780     4.8260    15.2530 o          1 GFS      -0.707500
     25 O20          5.3130     4.7440    16.6190 o          1 GFS      -0.707500
     26 C29          5.7060     7.5940    23.2920 ca         1 GFS      -0.096000
     27 C30          6.9100     7.9050    22.6910 ca         1 GFS      -0.109000
     28 C31          7.1150     7.6600    21.3280 ca         1 GFS      -0.119000
     29 C32          6.1170     7.1060    20.5510 ca         1 GFS      -0.055000
     30 H1           1.7370     5.6130    21.2430 h4         1 GFS       0.227000
     31 H2           3.7160     8.0630    18.8160 hc         1 GFS       0.079700
     32 H3           1.6050     9.3760    17.6990 ha         1 GFS       0.108000
     33 H4           4.5690     5.4620    18.7130 h1         1 GFS       0.155700
     34 H5          -0.6730     4.9930    18.1850 ha         1 GFS       0.114000
     35 H6          -0.8480     9.2060    17.4040 ha         1 GFS       0.101000
     36 H7          -1.9740     7.0190    17.6360 ha         1 GFS       0.098000
     37 H8           4.9740     9.5360    17.6870 ha         1 GFS       0.091000
     38 H9           8.6280     6.6200    16.1430 ha         1 GFS       0.130000
     39 H10          7.2780    10.3750    17.6840 ha         1 GFS       0.090000
     40 H11          9.1250     8.9030    16.9230 ha         1 GFS       0.090000
     41 H13          5.5480     7.7790    24.3470 ha         1 GFS       0.109000
     42 H14          7.7050     8.3390    23.2830 ha         1 GFS       0.102000
     43 H15          8.0670     7.9060    20.8780 ha         1 GFS       0.116000
     44 H16          6.2960     6.9180    19.5000 ha         1 GFS       0.149000
@<TRIPOS>BOND
     1     1     2 2   
     2     1     3 1   
     3     1    11 1   
     4     2     7 1   
     5     2    30 1   
     6     3     4 ar  
     7     3    29 ar  
     8     4     7 1   
     9     4    26 ar  
    10     5     6 1   
    11     5     8 ar  
    12     5     9 ar  
    13     6    10 1   
    14     6    11 1   
    15     6    31 1   
    16     8    12 1   
    17     8    13 ar  
    18     9    14 ar  
    19     9    32 1   
    20    10    15 1   
    21    10    16 2   
    22    11    12 1   
    23    11    33 1   
    24    13    17 ar  
    25    13    34 1   
    26    14    17 ar  
    27    14    35 1   
    28    15    18 ar  
    29    15    19 ar  
    30    17    36 1   
    31    18    20 ar  
    32    18    21 1   
    33    19    22 ar  
    34    19    37 1   
    35    20    23 ar  
    36    20    38 1   
    37    21    24 1   
    38    21    25 1   
    39    22    23 ar  
    40    22    39 1   
    41    23    40 1   
    42    26    27 ar  
    43    26    41 1   
    44    27    28 ar  
    45    27    42 1   
    46    28    29 ar  
    47    28    43 1   
    48    29    44 1   
@<TRIPOS>SUBSTRUCTURE
     1 GFS         1 TEMP              0 ****  ****    0 ROOT
