@<TRIPOS>MOLECULE
GFT
   36    36     1     0     0
SMALL
No Charge or Current Charge


@<TRIPOS>ATOM
      1 N            7.9000     5.2870   -37.4400 n8         1 GFT      -1.014200
      2 CA           8.7510     4.0340   -37.3000 c3         1 GFT       0.005500
      3 C            9.9070     3.8740   -38.3600 c          1 GFT       0.699000
      4 O           11.0570     3.7810   -37.9520 o          1 GFT      -0.725000
      5 CB           7.8800     2.7450   -37.2480 c3         1 GFT       0.234600
      6 OG           8.6350     1.6800   -36.6520 os         1 GFT      -0.602400
      7 CAA         10.2560    -0.4490   -36.4050 c3         1 GFT      -0.479100
      8 OAC          9.7110     0.7290   -38.8620 o          1 GFT      -0.547000
      9 CAD          5.3050    -3.1740   -37.4270 c6         1 GFT      -0.071400
     10 CAE          6.8370    -3.3980   -37.4610 c6         1 GFT      -0.066400
     11 CAF          4.9540    -1.6670   -37.4990 c6         1 GFT      -0.066400
     12 CAG          7.5460    -2.6030   -36.3330 c6         1 GFT      -0.084400
     13 CAH          5.6660    -0.8710   -36.3730 c6         1 GFT      -0.084400
     14 OAI          7.7570    -0.4720   -37.5680 os         1 GFT      -0.611400
     15 CAJ          7.2000    -1.0890   -36.3940 c6         1 GFT       0.232300
     16 PAK          9.1120     0.4160   -37.5360 p5         1 GFT       1.351800
     17 OXT          9.6300     4.0480   -39.5400 o          1 GFT      -0.725000
     18 HN1          8.5080     6.1140   -37.3680 hn         1 GFT       0.389000
     19 HN2          7.5590     5.3400   -38.4100 hn         1 GFT       0.389000
     20 HA           9.2410     4.1150   -36.3190 h1         1 GFT       0.045700
     21 HB1C         7.5340     2.4860   -38.2580 h1         1 GFT       0.028200
     22 HB2C         6.9890     2.9370   -36.6350 h1         1 GFT       0.028200
     23 HAA1        10.4970    -1.4330   -36.8190 hc         1 GFT       0.076033
     24 HAA2        11.1730     0.1460   -36.3430 hc         1 GFT       0.076033
     25 HAA3         9.8290    -0.5500   -35.4030 hc         1 GFT       0.076033
     26 HAE1         7.0600    -4.4690   -37.3580 hc         1 GFT       0.043450
     27 HAE2         7.2350    -3.0900   -38.4380 hc         1 GFT       0.043450
     28 HAF1         5.2460    -1.2650   -38.4790 hc         1 GFT       0.043450
     29 HAF2         3.8670    -1.5330   -37.4200 hc         1 GFT       0.043450
     30 HAG1         7.2370    -3.0020   -35.3580 hc         1 GFT       0.042700
     31 HAG2         8.6290    -2.7590   -36.3940 hc         1 GFT       0.042700
     32 HAH1         5.4410     0.1990   -36.4700 hc         1 GFT       0.042700
     33 HAH2         5.2690    -1.1830   -35.3970 hc         1 GFT       0.042700
     34 HAJ          7.6110    -0.5970   -35.5010 h1         1 GFT       0.041700
     35 HAD1         4.8320    -3.7070   -38.2630 hc         1 GFT       0.028200
     36 HAD2         4.8890    -3.6070   -36.5060 hc         1 GFT       0.028200
@<TRIPOS>BOND
     1     1     2 1   
     2     1    18 1   
     3     1    19 1   
     4     2     3 1   
     5     2     5 1   
     6     2    20 1   
     7     3     4 1   
     8     3    17 1   
     9     5     6 1   
    10     5    21 1   
    11     5    22 1   
    12     6    16 1   
    13     7    16 1   
    14     7    23 1   
    15     7    24 1   
    16     7    25 1   
    17     8    16 2   
    18     9    10 1   
    19     9    11 1   
    20     9    35 1   
    21     9    36 1   
    22    10    12 1   
    23    10    26 1   
    24    10    27 1   
    25    11    13 1   
    26    11    28 1   
    27    11    29 1   
    28    12    15 1   
    29    12    30 1   
    30    12    31 1   
    31    13    15 1   
    32    13    32 1   
    33    13    33 1   
    34    14    15 1   
    35    14    16 1   
    36    15    34 1   
@<TRIPOS>SUBSTRUCTURE
     1 GFT         1 TEMP              0 ****  ****    0 ROOT
