@<TRIPOS>MOLECULE
GFT
   36    36     1     0     0
SMALL
abcg2


@<TRIPOS>ATOM
      1 N            7.5100     4.8610   -37.5850 n8         1 GFT      -1.014200
      2 CA           8.4830     3.9050   -37.0640 c3         1 GFT       0.005500
      3 C            9.9440     4.1980   -37.4830 c          1 GFT       0.699000
      4 O           10.8050     4.2420   -36.5860 o          1 GFT      -0.725000
      5 CB           8.0560     2.5420   -37.5820 c3         1 GFT       0.234600
      6 OG           8.9720     1.5440   -37.1090 os         1 GFT      -0.602400
      7 CAA         10.4950    -0.5960   -36.9720 c3         1 GFT      -0.479100
      8 OAC          9.4790     0.3560   -39.3810 o          1 GFT      -0.547000
      9 CAD          5.2170    -2.9980   -37.1770 c6         1 GFT      -0.071400
     10 CAE          6.6980    -3.3640   -37.1480 c6         1 GFT      -0.066400
     11 CAF          5.0180    -1.5200   -37.5020 c6         1 GFT      -0.066400
     12 CAG          7.4690    -2.4710   -36.1790 c6         1 GFT      -0.084400
     13 CAH          5.7930    -0.6340   -36.5320 c6         1 GFT      -0.084400
     14 OAI          7.8590    -0.6810   -37.7570 os         1 GFT      -0.611400
     15 CAJ          7.2710    -0.9910   -36.4750 c6         1 GFT       0.232300
     16 PAK          9.1980     0.1850   -37.9350 p5         1 GFT       1.351800
     17 OXT         10.1220     4.3630   -38.7090 o          1 GFT      -0.725000
     18 HN1          7.6190     5.7430   -37.1010 hn         1 GFT       0.389000
     19 HN2          7.7520     5.0520   -38.5510 hn         1 GFT       0.389000
     20 HA           8.4040     3.9050   -35.9730 h1         1 GFT       0.045700
     21 HB1C         8.0400     2.5580   -38.6760 h1         1 GFT       0.028200
     22 HB2C         7.0490     2.3040   -37.2300 h1         1 GFT       0.028200
     23 HAA1        10.6950    -1.5870   -37.3770 hc         1 GFT       0.076033
     24 HAA2        11.4080    -0.0050   -37.0390 hc         1 GFT       0.076033
     25 HAA3        10.2240    -0.6970   -35.9220 hc         1 GFT       0.076033
     26 HAE1         6.8240    -4.4090   -36.8570 hc         1 GFT       0.043450
     27 HAE2         7.1180    -3.2730   -38.1530 hc         1 GFT       0.043450
     28 HAF1         5.3450    -1.3230   -38.5270 hc         1 GFT       0.043450
     29 HAF2         3.9570    -1.2620   -37.4630 hc         1 GFT       0.043450
     30 HAG1         7.1130    -2.6480   -35.1600 hc         1 GFT       0.042700
     31 HAG2         8.5330    -2.7190   -36.1800 hc         1 GFT       0.042700
     32 HAH1         5.6750     0.4230   -36.7850 hc         1 GFT       0.042700
     33 HAH2         5.3900    -0.7580   -35.5230 hc         1 GFT       0.042700
     34 HAJ          7.7520    -0.3950   -35.6920 h1         1 GFT       0.041700
     35 HAD1         4.6890    -3.6190   -37.9040 hc         1 GFT       0.028200
     36 HAD2         4.7730    -3.2150   -36.2000 hc         1 GFT       0.028200
@<TRIPOS>BOND
     1     1     2 1   
     2     1    18 1   
     3     1    19 1   
     4     2     3 1   
     5     2     5 1   
     6     2    20 1   
     7     3     4 1   
     8     3    17 1   
     9     5     6 1   
    10     5    21 1   
    11     5    22 1   
    12     6    16 1   
    13     7    16 1   
    14     7    23 1   
    15     7    24 1   
    16     7    25 1   
    17     8    16 2   
    18     9    10 1   
    19     9    11 1   
    20     9    35 1   
    21     9    36 1   
    22    10    12 1   
    23    10    26 1   
    24    10    27 1   
    25    11    13 1   
    26    11    28 1   
    27    11    29 1   
    28    12    15 1   
    29    12    30 1   
    30    12    31 1   
    31    13    15 1   
    32    13    32 1   
    33    13    33 1   
    34    14    15 1   
    35    14    16 1   
    36    15    34 1   
@<TRIPOS>SUBSTRUCTURE
     1 GFT         1 TEMP              0 ****  ****    0 ROOT
