@<TRIPOS>MOLECULE
GFU
   50    52     1     0     0
SMALL
No Charge or Current Charge


@<TRIPOS>ATOM
      1 CAY        -24.7640    54.9280    95.9530 c3         1 GFU       0.145900
      2 OAC        -23.8840    54.2040    95.0750 os         1 GFU      -0.320100
      3 CAS        -24.2350    53.8730    93.7750 ca         1 GFU       0.107100
      4 CAO        -25.4870    54.2360    93.2240 ca         1 GFU      -0.154000
      5 CAU        -23.3120    53.1510    92.9810 ca         1 GFU       0.115100
      6 OAE        -22.0910    52.7830    93.4800 oh         1 GFU      -0.514100
      7 CAT        -23.6440    52.8050    91.6620 ca         1 GFU      -0.181000
      8 CAP        -24.8890    53.1700    91.1250 ca         1 GFU      -0.076000
      9 CAM        -25.8280    53.8850    91.9010 ca         1 GFU      -0.086300
     10 CAI        -27.2030    54.3010    91.3490 c5         1 GFU       0.208600
     11 CAG        -28.2720    53.3280    91.9510 c5         1 GFU      -0.088700
     12 CAL        -29.6250    54.0650    92.1710 c3         1 GFU       0.170600
     13 OAB        -30.5200    53.2890    92.9700 oh         1 GFU      -0.650000
     14 OAA        -27.2750    54.1400    89.9070 os         1 GFU      -0.437000
     15 CAJ        -28.2030    53.0790    89.5870 c5         1 GFU       0.143600
     16 CAH        -28.2240    52.2020    90.8610 c5         1 GFU      -0.088700
     17 CAK        -29.3180    51.1010    90.8920 c3         1 GFU      -0.005100
     18 CAN        -29.2300    50.1520    92.0880 ca         1 GFU      -0.065300
     19 CAQ        -30.3230    50.0100    92.9680 ca         1 GFU      -0.160000
     20 CAR        -28.0660    49.3850    92.3060 ca         1 GFU      -0.088000
     21 CAW        -27.9860    48.5050    93.3990 ca         1 GFU      -0.122000
     22 CAX        -29.0710    48.3790    94.2780 ca         1 GFU       0.116100
     23 OAF        -28.9930    47.5240    95.3390 oh         1 GFU      -0.536100
     24 CAV        -30.2470    49.1280    94.0690 ca         1 GFU       0.048100
     25 OAD        -31.2930    48.9650    94.9630 os         1 GFU      -0.368100
     26 CAZ        -32.5250    49.7000    94.8460 c3         1 GFU       0.157900
     27 H1         -24.2870    55.0770    96.9290 h1         1 GFU       0.038700
     28 H2         -25.0050    55.9150    95.5380 h1         1 GFU       0.038700
     29 H3         -25.6980    54.3740    96.1130 h1         1 GFU       0.038700
     30 H4         -26.2120    54.7910    93.8130 ha         1 GFU       0.116000
     31 H5         -21.6020    52.2980    92.7820 ho         1 GFU       0.459000
     32 H6         -22.9400    52.2520    91.0440 ha         1 GFU       0.115000
     33 H7         -25.1200    52.8890    90.1000 ha         1 GFU       0.123000
     34 H8         -27.4070    55.3510    91.6020 h1         1 GFU       0.038700
     35 H9         -27.9650    52.9460    92.9310 hc         1 GFU       0.080700
     36 H10        -29.4210    55.0140    92.6850 h1         1 GFU       0.015700
     37 H11        -30.0860    54.3110    91.2060 h1         1 GFU       0.015700
     38 H12        -31.3260    53.8330    93.1060 ho         1 GFU       0.443000
     39 H13        -29.1860    53.5140    89.3650 h1         1 GFU       0.047200
     40 H14        -27.8550    52.5330    88.7000 h1         1 GFU       0.047200
     41 H15        -27.2700    51.6670    90.9220 hc         1 GFU       0.064700
     42 H16        -30.3110    51.5630    90.8390 hc         1 GFU       0.045200
     43 H17        -29.2360    50.5030    89.9770 hc         1 GFU       0.045200
     44 H18        -31.2200    50.5950    92.7850 ha         1 GFU       0.110000
     45 H19        -27.2210    49.4640    91.6260 ha         1 GFU       0.118000
     46 H20        -27.0850    47.9200    93.5610 ha         1 GFU       0.129000
     47 H21        -29.8530    47.5920    95.8120 ho         1 GFU       0.478000
     48 H22        -33.2110    49.4250    95.6570 h1         1 GFU       0.040033
     49 H23        -32.3420    50.7810    94.9070 h1         1 GFU       0.040033
     50 H24        -33.0210    49.4800    93.8920 h1         1 GFU       0.040033
@<TRIPOS>BOND
     1     1     2 1   
     2     1    27 1   
     3     1    28 1   
     4     1    29 1   
     5     2     3 1   
     6     3     4 ar  
     7     3     5 ar  
     8     4     9 ar  
     9     4    30 1   
    10     5     6 1   
    11     5     7 ar  
    12     6    31 1   
    13     7     8 ar  
    14     7    32 1   
    15     8     9 ar  
    16     8    33 1   
    17     9    10 1   
    18    10    11 1   
    19    10    14 1   
    20    10    34 1   
    21    11    12 1   
    22    11    16 1   
    23    11    35 1   
    24    12    13 1   
    25    12    36 1   
    26    12    37 1   
    27    13    38 1   
    28    14    15 1   
    29    15    16 1   
    30    15    39 1   
    31    15    40 1   
    32    16    17 1   
    33    16    41 1   
    34    17    18 1   
    35    17    42 1   
    36    17    43 1   
    37    18    19 ar  
    38    18    20 ar  
    39    19    24 ar  
    40    19    44 1   
    41    20    21 ar  
    42    20    45 1   
    43    21    22 ar  
    44    21    46 1   
    45    22    23 1   
    46    22    24 ar  
    47    23    47 1   
    48    24    25 1   
    49    25    26 1   
    50    26    48 1   
    51    26    49 1   
    52    26    50 1   
@<TRIPOS>SUBSTRUCTURE
     1 GFU         1 TEMP              0 ****  ****    0 ROOT
