@<TRIPOS>MOLECULE
GFU
   50    52     1     0     0
SMALL
bcc


@<TRIPOS>ATOM
      1 CAY        -23.5990    57.1230    94.1260 c3         1 GFU       0.122700
      2 OAC        -22.8300    55.9890    93.7910 os         1 GFU      -0.296900
      3 CAS        -23.4410    54.9720    93.1490 ca         1 GFU       0.107100
      4 CAO        -24.7910    54.9290    92.8290 ca         1 GFU      -0.172000
      5 CAU        -22.6140    53.8970    92.7850 ca         1 GFU       0.115100
      6 OAE        -21.3090    53.9860    93.1160 oh         1 GFU      -0.475100
      7 CAT        -23.1650    52.8180    92.1110 ca         1 GFU      -0.199000
      8 CAP        -24.5170    52.7850    91.7960 ca         1 GFU      -0.094000
      9 CAM        -25.3430    53.8380    92.1570 ca         1 GFU      -0.086300
     10 CAI        -26.8140    53.8140    91.8540 c5         1 GFU       0.185400
     11 CAG        -27.6230    52.7380    92.6390 c5         1 GFU      -0.088700
     12 CAL        -28.4810    53.4460    93.6730 c3         1 GFU       0.147400
     13 OAB        -29.0330    52.5170    94.5720 oh         1 GFU      -0.587800
     14 OAA        -27.0190    53.5560    90.4790 os         1 GFU      -0.390600
     15 CAJ        -28.2900    52.9600    90.3640 c5         1 GFU       0.120400
     16 CAH        -28.3610    51.9670    91.5190 c5         1 GFU      -0.088700
     17 CAK        -29.7850    51.4780    91.7500 c3         1 GFU      -0.005100
     18 CAN        -29.9580    50.1970    92.5270 ca         1 GFU      -0.065300
     19 CAQ        -31.2470    49.6620    92.6280 ca         1 GFU      -0.178000
     20 CAR        -28.9190    49.5160    93.1380 ca         1 GFU      -0.106000
     21 CAW        -29.1520    48.3360    93.8420 ca         1 GFU      -0.140000
     22 CAX        -30.4270    47.8160    93.9480 ca         1 GFU       0.116100
     23 OAF        -30.6280    46.6740    94.6430 oh         1 GFU      -0.497100
     24 CAV        -31.4890    48.4920    93.3250 ca         1 GFU       0.048100
     25 OAD        -32.6980    47.9030    93.4730 os         1 GFU      -0.344900
     26 CAZ        -33.8230    48.5100    92.8740 c3         1 GFU       0.134700
     27 H1         -22.9210    57.8260    94.6050 h1         1 GFU       0.038700
     28 H2         -24.0330    57.6010    93.2440 h1         1 GFU       0.038700
     29 H3         -24.4040    56.8840    94.8270 h1         1 GFU       0.038700
     30 H4         -25.4400    55.7540    93.0960 ha         1 GFU       0.134000
     31 H5         -20.8400    53.1990    92.8180 ho         1 GFU       0.420000
     32 H6         -22.5260    51.9880    91.8270 ha         1 GFU       0.133000
     33 H7         -24.9160    51.9250    91.2720 ha         1 GFU       0.141000
     34 H8         -27.2310    54.8050    92.0970 h1         1 GFU       0.038700
     35 H9         -26.9360    52.0720    93.1670 hc         1 GFU       0.080700
     36 H10        -27.8410    54.1690    94.2000 h1         1 GFU       0.015700
     37 H11        -29.2560    54.0380    93.1640 h1         1 GFU       0.015700
     38 H12        -29.5940    52.9940    95.1900 ho         1 GFU       0.404000
     39 H13        -29.0920    53.7090    90.4480 h1         1 GFU       0.047200
     40 H14        -28.3710    52.4860    89.3840 h1         1 GFU       0.047200
     41 H15        -27.7400    51.1100    91.2370 hc         1 GFU       0.064700
     42 H16        -30.3830    52.2660    92.2160 hc         1 GFU       0.045200
     43 H17        -30.2420    51.3300    90.7650 hc         1 GFU       0.045200
     44 H18        -32.0650    50.1860    92.1470 ha         1 GFU       0.128000
     45 H19        -27.9060    49.8910    93.0850 ha         1 GFU       0.136000
     46 H20        -28.3290    47.8160    94.3180 ha         1 GFU       0.147000
     47 H21        -31.5640    46.4410    94.6290 ho         1 GFU       0.439000
     48 H22        -34.6780    47.8800    93.1080 h1         1 GFU       0.040033
     49 H23        -34.0050    49.5120    93.2710 h1         1 GFU       0.040033
     50 H24        -33.7190    48.5750    91.7880 h1         1 GFU       0.040033
@<TRIPOS>BOND
     1     1     2 1   
     2     1    27 1   
     3     1    28 1   
     4     1    29 1   
     5     2     3 1   
     6     3     4 ar  
     7     3     5 ar  
     8     4     9 ar  
     9     4    30 1   
    10     5     6 1   
    11     5     7 ar  
    12     6    31 1   
    13     7     8 ar  
    14     7    32 1   
    15     8     9 ar  
    16     8    33 1   
    17     9    10 1   
    18    10    11 1   
    19    10    14 1   
    20    10    34 1   
    21    11    12 1   
    22    11    16 1   
    23    11    35 1   
    24    12    13 1   
    25    12    36 1   
    26    12    37 1   
    27    13    38 1   
    28    14    15 1   
    29    15    16 1   
    30    15    39 1   
    31    15    40 1   
    32    16    17 1   
    33    16    41 1   
    34    17    18 1   
    35    17    42 1   
    36    17    43 1   
    37    18    19 ar  
    38    18    20 ar  
    39    19    24 ar  
    40    19    44 1   
    41    20    21 ar  
    42    20    45 1   
    43    21    22 ar  
    44    21    46 1   
    45    22    23 1   
    46    22    24 ar  
    47    23    47 1   
    48    24    25 1   
    49    25    26 1   
    50    26    48 1   
    51    26    49 1   
    52    26    50 1   
@<TRIPOS>SUBSTRUCTURE
     1 GFU         1 TEMP              0 ****  ****    0 ROOT
