@<TRIPOS>MOLECULE
GFV
   46    48     1     0     0
SMALL
bcc


@<TRIPOS>ATOM
      1 C10          2.0900    -0.9820    -0.3760 c3         1 GFV       0.143400
      2 C13         -1.3580    -1.9600    -1.0010 ca         1 GFV      -0.190500
      3 C15         -2.8020    -0.0240    -1.1680 ca         1 GFV      -0.141300
      4 C17         -0.4230     0.2450    -0.7730 ca         1 GFV      -0.190500
      5 C20         -6.1290     1.6330    -0.1330 c          1 GFV       0.716500
      6 C01          7.5810     2.5560     1.2200 c3         1 GFV      -0.131100
      7 C02          8.0070     1.1850     0.7070 c3         1 GFV       0.202400
      8 C03          6.8000     0.3140     0.4760 ca         1 GFV      -0.198600
      9 C04          6.1110     0.3060    -0.7330 ca         1 GFV       0.435200
     10 C06          4.5310    -1.1660     0.0280 ca         1 GFV       0.411600
     11 C07          5.1460    -1.2260     1.2740 ca         1 GFV      -0.240300
     12 C08          6.2920    -0.4810     1.4940 ca         1 GFV      -0.088000
     13 C09          3.2700    -1.9310    -0.2570 c3         1 GFV      -0.128700
     14 C12         -0.2500    -1.1380    -0.7930 ca         1 GFV       0.158100
     15 C14         -2.6120    -1.4050    -1.1820 ca         1 GFV      -0.077000
     16 C16         -1.6900     0.7820    -0.9600 ca         1 GFV      -0.077000
     17 C19         -4.7400     1.0420     0.0140 c5         1 GFV      -0.084600
     18 C23         -6.6040    -0.0440     1.4580 c          1 GFV       0.736100
     19 N05          5.0160    -0.4100    -0.9540 nb         1 GFV      -0.677000
     20 N22         -7.0310     0.9990     0.6730 ns         1 GFV      -0.616500
     21 O11          0.9340    -1.7600    -0.6290 os         1 GFV      -0.326900
     22 O24         -7.2940    -0.6840     2.2030 o          1 GFV      -0.539500
     23 O26          8.7250     1.2780    -0.5030 oh         1 GFV      -0.593800
     24 S25         -4.8780    -0.3200     1.2110 ss         1 GFV      -0.214700
     25 H1           1.9700    -0.4080     0.5510 h1         1 GFV       0.043700
     26 H2           2.2660    -0.2700    -1.1900 h1         1 GFV       0.043700
     27 H3          -1.2290    -3.0350    -1.0190 ha         1 GFV       0.143500
     28 H4           0.4090     0.9180    -0.6180 ha         1 GFV       0.143500
     29 H5           7.0270     2.4660     2.1550 hc         1 GFV       0.045367
     30 H6           8.4510     3.1870     1.4150 hc         1 GFV       0.045367
     31 H7           6.9420     3.0620     0.4940 hc         1 GFV       0.045367
     32 H8           8.6210     0.7060     1.4830 h1         1 GFV       0.036700
     33 H9           6.4620     0.9040    -1.5670 h4         1 GFV       0.034100
     34 H10          4.7340    -1.8520     2.0540 ha         1 GFV       0.143000
     35 H11          6.7900    -0.5210     2.4560 ha         1 GFV       0.136000
     36 H12          3.0860    -2.6510     0.5420 hc         1 GFV       0.069700
     37 H13          3.3810    -2.4910    -1.1890 hc         1 GFV       0.069700
     38 H14         -3.4600    -2.0600    -1.3390 ha         1 GFV       0.132500
     39 H15         -1.8020     1.8600    -0.9440 ha         1 GFV       0.132500
     40 H18         -4.0930     1.8110     0.4430 h1         1 GFV       0.114700
     41 H19         -8.0060     1.2760     0.6870 hn         1 GFV       0.351500
     42 H20          9.4340     1.9170    -0.3820 ho         1 GFV       0.409000
     43 C18         -4.1720     0.5730    -1.3280 c3         1 GFV       0.001900
     44 O21         -6.3960     2.5440    -0.8760 o          1 GFV      -0.562500
     45 H16         -4.1340     1.4390    -1.9920 hc         1 GFV       0.067200
     46 H17         -4.8520    -0.1520    -1.7780 hc         1 GFV       0.067200
@<TRIPOS>BOND
     1     1    13 1   
     2     1    21 1   
     3     1    25 1   
     4     1    26 1   
     5     2    14 ar  
     6     2    15 ar  
     7     2    27 1   
     8     3    15 ar  
     9     3    16 ar  
    10     3    43 1   
    11     4    14 ar  
    12     4    16 ar  
    13     4    28 1   
    14     5    17 1   
    15     5    20 1   
    16     5    44 2   
    17     6     7 1   
    18     6    29 1   
    19     6    30 1   
    20     6    31 1   
    21     7     8 1   
    22     7    23 1   
    23     7    32 1   
    24     8     9 ar  
    25     8    12 ar  
    26     9    19 ar  
    27     9    33 1   
    28    10    11 ar  
    29    10    13 1   
    30    10    19 ar  
    31    11    12 ar  
    32    11    34 1   
    33    12    35 1   
    34    13    36 1   
    35    13    37 1   
    36    14    21 1   
    37    15    38 1   
    38    16    39 1   
    39    17    24 1   
    40    17    40 1   
    41    17    43 1   
    42    18    20 1   
    43    18    22 2   
    44    18    24 1   
    45    20    41 1   
    46    23    42 1   
    47    43    45 1   
    48    43    46 1   
@<TRIPOS>SUBSTRUCTURE
     1 GFV         1 TEMP              0 ****  ****    0 ROOT
