@<TRIPOS>MOLECULE
GFV
   46    48     1     0     0
SMALL
No Charge or Current Charge


@<TRIPOS>ATOM
      1 C10          2.1080    -0.7740    -0.4270 c3         1 GFV       0.166600
      2 C13         -1.3670    -1.8250    -1.2680 ca         1 GFV      -0.172500
      3 C15         -2.9300     0.0380    -1.0830 ca         1 GFV      -0.141300
      4 C17         -0.5590     0.3710    -0.6050 ca         1 GFV      -0.172500
      5 C20         -6.4000     1.5060     0.0540 c          1 GFV       0.574000
      6 C01          8.1500     2.5550     0.5240 c3         1 GFV      -0.131100
      7 C02          8.1990     1.0840     0.9770 c3         1 GFV       0.225600
      8 C03          6.9130     0.3350     0.6570 ca         1 GFV      -0.133300
      9 C04          6.4880     0.1680    -0.6770 ca         1 GFV       0.369900
     10 C06          4.5920    -1.0010    -0.0260 ca         1 GFV       0.346300
     11 C07          4.9400    -0.8830     1.3320 ca         1 GFV      -0.157000
     12 C08          6.1180    -0.2060     1.6850 ca         1 GFV      -0.070000
     13 C09          3.3220    -1.7160    -0.4470 c3         1 GFV      -0.128700
     14 C12         -0.3050    -0.9890    -0.8880 ca         1 GFV       0.158100
     15 C14         -2.6740    -1.3180    -1.3660 ca         1 GFV      -0.059000
     16 C16         -1.8660     0.8780    -0.7030 ca         1 GFV      -0.059000
     17 C19         -4.9960     0.8730     0.1940 c5         1 GFV      -0.036700
     18 C23         -6.9690    -0.4460     1.3370 c          1 GFV       0.593600
     19 N05          5.3490    -0.4840    -1.0190 nb         1 GFV      -0.677000
     20 N22         -7.2860     0.7040     0.6980 ns         1 GFV      -0.482500
     21 O11          0.9560    -1.5440    -0.8090 os         1 GFV      -0.350100
     22 O24         -7.7650    -1.1680     1.9110 o          1 GFV      -0.464000
     23 O26          9.3020     0.4380     0.3420 oh         1 GFV      -0.656000
     24 S25         -5.1940    -0.7150     1.1670 ss         1 GFV      -0.262600
     25 H1           1.9810    -0.3600     0.5830 h1         1 GFV       0.043700
     26 H2           2.2740     0.0540    -1.1290 h1         1 GFV       0.043700
     27 H3          -1.1750    -2.8720    -1.4860 ha         1 GFV       0.125500
     28 H4           0.2400     1.0450    -0.3090 ha         1 GFV       0.125500
     29 H5           7.2970     3.0660     0.9850 hc         1 GFV       0.045367
     30 H6           9.0630     3.0830     0.8240 hc         1 GFV       0.045367
     31 H7           8.0500     2.6330    -0.5650 hc         1 GFV       0.045367
     32 H8           8.3460     1.0730     2.0670 h1         1 GFV       0.036700
     33 H9           7.0750     0.5690    -1.5020 h4         1 GFV       0.034100
     34 H10          4.3010    -1.3110     2.1000 ha         1 GFV       0.125000
     35 H11          6.4040    -0.1040     2.7300 ha         1 GFV       0.118000
     36 H12          3.1320    -2.5610     0.2250 hc         1 GFV       0.069700
     37 H13          3.4340    -2.1360    -1.4530 hc         1 GFV       0.069700
     38 H14         -3.4860    -1.9810    -1.6580 ha         1 GFV       0.114500
     39 H15         -2.0520     1.9280    -0.4830 ha         1 GFV       0.114500
     40 H18         -4.3770     1.5750     0.7650 h1         1 GFV       0.114700
     41 H19         -8.2550     0.9840     0.6980 hn         1 GFV       0.351500
     42 H20         10.1120     0.9090     0.6340 ho         1 GFV       0.448000
     43 C18         -4.3470     0.5940    -1.1840 c3         1 GFV       0.001900
     44 O21         -6.7170     2.5320    -0.5260 o          1 GFV      -0.487000
     45 H16         -4.3220     1.5230    -1.7670 hc         1 GFV       0.067200
     46 H17         -4.9840    -0.0920    -1.7560 hc         1 GFV       0.067200
@<TRIPOS>BOND
     1     1    13 1   
     2     1    21 1   
     3     1    25 1   
     4     1    26 1   
     5     2    14 ar  
     6     2    15 ar  
     7     2    27 1   
     8     3    15 ar  
     9     3    16 ar  
    10     3    43 1   
    11     4    14 ar  
    12     4    16 ar  
    13     4    28 1   
    14     5    17 1   
    15     5    20 1   
    16     5    44 2   
    17     6     7 1   
    18     6    29 1   
    19     6    30 1   
    20     6    31 1   
    21     7     8 1   
    22     7    23 1   
    23     7    32 1   
    24     8     9 ar  
    25     8    12 ar  
    26     9    19 ar  
    27     9    33 1   
    28    10    11 ar  
    29    10    13 1   
    30    10    19 ar  
    31    11    12 ar  
    32    11    34 1   
    33    12    35 1   
    34    13    36 1   
    35    13    37 1   
    36    14    21 1   
    37    15    38 1   
    38    16    39 1   
    39    17    24 1   
    40    17    40 1   
    41    17    43 1   
    42    18    20 1   
    43    18    22 2   
    44    18    24 1   
    45    20    41 1   
    46    23    42 1   
    47    43    45 1   
    48    43    46 1   
@<TRIPOS>SUBSTRUCTURE
     1 GFV         1 TEMP              0 ****  ****    0 ROOT
