@<TRIPOS>MOLECULE
GFW
   50    51     1     0     0
SMALL
No Charge or Current Charge


@<TRIPOS>ATOM
      1 C4          -5.6240     1.4330    -1.0150 c3         1 GFW      -0.177700
      2 C14          5.3980     0.0110    -0.2160 c3         1 GFW       0.200800
      3 C5          -4.4650     1.5360    -0.0820 cc         1 GFW       0.434700
      4 C6          -2.4230     1.1920     0.7300 cd         1 GFW       0.330500
      5 C11          1.5490    -0.5230     0.7190 ca         1 GFW      -0.309500
      6 C7          -2.9210     2.0370     1.7010 cc         1 GFW      -0.252000
      7 C8          -1.0600     0.6060     0.7290 ca         1 GFW      -0.058500
      8 C9          -0.6430    -0.2530    -0.3160 ca         1 GFW      -0.112000
      9 C10          0.6470    -0.8110    -0.3230 ca         1 GFW      -0.021000
     10 C12          1.1490     0.3320     1.7640 ca         1 GFW      -0.021000
     11 C13         -0.1420     0.8880     1.7670 ca         1 GFW      -0.112000
     12 N1          -3.3180     0.9100    -0.2960 nd         1 GFW      -0.631000
     13 N2           3.9420    -0.1530    -0.3280 n7         1 GFW      -0.867300
     14 C3          -6.6360     0.4290    -0.5050 c          1 GFW       0.596100
     15 C1          -7.2790    -2.9660    -1.8010 c3         1 GFW      -0.098100
     16 O1          -6.6090    -0.7360    -1.2250 os         1 GFW      -0.451100
     17 O2          -7.3860     0.6440     0.4370 o          1 GFW      -0.474000
     18 S1          -4.5570     2.5180     1.3550 ss         1 GFW       0.022600
     19 O3           3.8250    -1.0610     2.0150 o          1 GFW      -0.533500
     20 O4           3.1730    -2.5150    -0.0120 o          1 GFW      -0.533500
     21 C15          5.8880     1.0370    -1.2610 c3         1 GFW      -0.079400
     22 C16          7.4300     1.2140    -1.3190 c3         1 GFW      -0.061700
     23 C17          7.8380     2.1270    -2.4980 c3         1 GFW      -0.089100
     24 C18          8.0260     1.7360     0.0100 c3         1 GFW      -0.089100
     25 H1          -6.1080     2.4120    -1.0880 hc         1 GFW       0.095700
     26 H2          -5.2640     1.1240    -2.0010 hc         1 GFW       0.095700
     27 H3           5.6740     0.3560     0.7900 h1         1 GFW       0.052700
     28 H4           5.9060    -0.9470    -0.3940 h1         1 GFW       0.052700
     29 H5          -2.4430     2.4110     2.5940 h4         1 GFW       0.165000
     30 H6          -1.3170    -0.4940    -1.1340 ha         1 GFW       0.128000
     31 H7           0.9400    -1.4660    -1.1430 ha         1 GFW       0.135000
     32 H8           1.8310     0.5700     2.5790 ha         1 GFW       0.135000
     33 H9          -0.4170     1.5420     2.5890 ha         1 GFW       0.128000
     34 H10          3.4680     0.7160    -0.0900 hn         1 GFW       0.477000
     35 H11         -7.4680    -2.6680    -2.8390 hc         1 GFW       0.048367
     36 H12         -6.2450    -3.3230    -1.7210 hc         1 GFW       0.048367
     37 H13         -7.9510    -3.7950    -1.5530 hc         1 GFW       0.048367
     38 H14         -8.5610    -1.4500    -0.9320 h1         1 GFW       0.051200
     39 H15         -7.3370    -2.1070     0.1870 h1         1 GFW       0.051200
     40 H16          5.5340     0.7160    -2.2480 hc         1 GFW       0.050200
     41 H17          5.4190     2.0090    -1.0600 hc         1 GFW       0.050200
     42 H18          7.8710     0.2260    -1.5110 hc         1 GFW       0.049700
     43 H19          8.9290     2.2040    -2.5700 hc         1 GFW       0.033867
     44 H20          7.4660     1.7250    -3.4480 hc         1 GFW       0.033867
     45 H21          7.4300     3.1370    -2.3690 hc         1 GFW       0.033867
     46 H22          7.5760     2.6960     0.2900 hc         1 GFW       0.033867
     47 H23          7.8600     1.0250     0.8280 hc         1 GFW       0.033867
     48 H24          9.1090     1.8820    -0.0830 hc         1 GFW       0.033867
     49 S2           3.2000    -1.2340     0.7010 sy         1 GFW       1.152600
     50 C2          -7.5180    -1.7840    -0.8470 c3         1 GFW       0.168600
@<TRIPOS>BOND
     1     1     3 1   
     2     1    14 1   
     3     1    25 1   
     4     1    26 1   
     5     2    13 1   
     6     2    21 1   
     7     2    27 1   
     8     2    28 1   
     9     3    12 2   
    10     3    18 1   
    11     4     6 2   
    12     4     7 1   
    13     4    12 1   
    14     5     9 ar  
    15     5    10 ar  
    16     5    49 1   
    17     6    18 1   
    18     6    29 1   
    19     7     8 ar  
    20     7    11 ar  
    21     8     9 ar  
    22     8    30 1   
    23     9    31 1   
    24    10    11 ar  
    25    10    32 1   
    26    11    33 1   
    27    13    34 1   
    28    13    49 1   
    29    14    16 1   
    30    14    17 2   
    31    15    35 1   
    32    15    36 1   
    33    15    37 1   
    34    15    50 1   
    35    16    50 1   
    36    19    49 2   
    37    20    49 2   
    38    21    22 1   
    39    21    40 1   
    40    21    41 1   
    41    22    23 1   
    42    22    24 1   
    43    22    42 1   
    44    23    43 1   
    45    23    44 1   
    46    23    45 1   
    47    24    46 1   
    48    24    47 1   
    49    24    48 1   
    50    38    50 1   
    51    39    50 1   
@<TRIPOS>SUBSTRUCTURE
     1 GFW         1 TEMP              0 ****  ****    0 ROOT
