@<TRIPOS>MOLECULE
GFW
   50    51     1     0     0
SMALL
abcg2


@<TRIPOS>ATOM
      1 C4          -4.7900     0.6900    -1.0650 c3         1 GFW      -0.177700
      2 C14          5.1160     0.1660    -0.1110 c3         1 GFW       0.200800
      3 C5          -3.5750     0.9120    -0.2360 cc         1 GFW       0.434700
      4 C6          -1.5320     0.6290     0.5470 cd         1 GFW       0.330500
      5 C11          2.2400    -1.3280     0.5320 ca         1 GFW      -0.309500
      6 C7          -1.9240     1.6460     1.3690 cc         1 GFW      -0.252000
      7 C8          -0.2260    -0.0380     0.5510 ca         1 GFW      -0.058500
      8 C9           0.0620    -1.0120    -0.4080 ca         1 GFW      -0.112000
      9 C10          1.2870    -1.6530    -0.4240 ca         1 GFW      -0.021000
     10 C12          1.9730    -0.3680     1.5010 ca         1 GFW      -0.021000
     11 C13          0.7470     0.2710     1.5030 ca         1 GFW      -0.112000
     12 N1          -2.4840     0.2340    -0.3540 nd         1 GFW      -0.631000
     13 N2           4.7870    -1.2070    -0.4930 n7         1 GFW      -0.867300
     14 C3          -5.8580    -0.0730    -0.3120 c          1 GFW       0.596100
     15 C1          -9.1060    -1.0730    -1.5660 c3         1 GFW      -0.098100
     16 O1          -6.9130    -0.2840    -1.0770 os         1 GFW      -0.451100
     17 O2          -5.7580    -0.4370     0.8300 o          1 GFW      -0.474000
     18 S1          -3.5230     2.1140     1.0020 ss         1 GFW       0.022600
     19 O3           4.3930    -2.0460     1.8210 o          1 GFW      -0.533500
     20 O4           3.6730    -3.3980    -0.1790 o          1 GFW      -0.533500
     21 C15          6.1590     0.7130    -1.0730 c3         1 GFW      -0.079400
     22 C16          6.6680     2.1070    -0.7020 c3         1 GFW      -0.061700
     23 C17          7.7840     2.5200    -1.6570 c3         1 GFW      -0.089100
     24 C18          5.5560     3.1520    -0.7000 c3         1 GFW      -0.089100
     25 H1          -5.2100     1.6370    -1.4160 hc         1 GFW       0.095700
     26 H2          -4.5080     0.1240    -1.9560 hc         1 GFW       0.095700
     27 H3           4.2250     0.8030    -0.1080 h1         1 GFW       0.052700
     28 H4           5.5200     0.1550     0.9020 h1         1 GFW       0.052700
     29 H5          -1.3660     2.1380     2.1500 h4         1 GFW       0.165000
     30 H6          -0.6810    -1.2720    -1.1480 ha         1 GFW       0.128000
     31 H7           1.4830    -2.4060    -1.1750 ha         1 GFW       0.135000
     32 H8           2.7050    -0.1200     2.2570 ha         1 GFW       0.135000
     33 H9           0.5550     1.0130     2.2670 ha         1 GFW       0.128000
     34 H10          4.5190    -1.3040    -1.4680 hn         1 GFW       0.477000
     35 H11         -9.4440    -0.0830    -1.8690 hc         1 GFW       0.048367
     36 H12         -8.7640    -1.6130    -2.4500 hc         1 GFW       0.048367
     37 H13         -9.9630    -1.6100    -1.1600 hc         1 GFW       0.048367
     38 H14         -8.3850    -0.4660     0.3740 h1         1 GFW       0.051200
     39 H15         -7.7070    -1.9910    -0.2040 h1         1 GFW       0.051200
     40 H16          7.0020     0.0170    -1.1000 hc         1 GFW       0.050200
     41 H17          5.7420     0.7430    -2.0870 hc         1 GFW       0.050200
     42 H18          7.0900     2.0520     0.3090 hc         1 GFW       0.049700
     43 H19          8.2030     3.4880    -1.3790 hc         1 GFW       0.033867
     44 H20          8.5980     1.7940    -1.6610 hc         1 GFW       0.033867
     45 H21          7.4080     2.6030    -2.6800 hc         1 GFW       0.033867
     46 H22          5.0620     3.1950    -1.6740 hc         1 GFW       0.033867
     47 H23          4.7920     2.9480     0.0510 hc         1 GFW       0.033867
     48 H24          5.9570     4.1440    -0.4890 hc         1 GFW       0.033867
     49 S2           3.8270    -2.1140     0.4840 sy         1 GFW       1.152600
     50 C2          -8.0300    -0.9950    -0.5110 c3         1 GFW       0.168600
@<TRIPOS>BOND
     1     1     3 1   
     2     1    14 1   
     3     1    25 1   
     4     1    26 1   
     5     2    13 1   
     6     2    21 1   
     7     2    27 1   
     8     2    28 1   
     9     3    12 2   
    10     3    18 1   
    11     4     6 2   
    12     4     7 1   
    13     4    12 1   
    14     5     9 ar  
    15     5    10 ar  
    16     5    49 1   
    17     6    18 1   
    18     6    29 1   
    19     7     8 ar  
    20     7    11 ar  
    21     8     9 ar  
    22     8    30 1   
    23     9    31 1   
    24    10    11 ar  
    25    10    32 1   
    26    11    33 1   
    27    13    34 1   
    28    13    49 1   
    29    14    16 1   
    30    14    17 2   
    31    15    35 1   
    32    15    36 1   
    33    15    37 1   
    34    15    50 1   
    35    16    50 1   
    36    19    49 2   
    37    20    49 2   
    38    21    22 1   
    39    21    40 1   
    40    21    41 1   
    41    22    23 1   
    42    22    24 1   
    43    22    42 1   
    44    23    43 1   
    45    23    44 1   
    46    23    45 1   
    47    24    46 1   
    48    24    47 1   
    49    24    48 1   
    50    38    50 1   
    51    39    50 1   
@<TRIPOS>SUBSTRUCTURE
     1 GFW         1 TEMP              0 ****  ****    0 ROOT
