@<TRIPOS>MOLECULE
GFZ
   64    68     1     0     0
SMALL
abcg2


@<TRIPOS>ATOM
      1 C4           7.0500     0.4400    -0.4160 c6         1 GFZ       0.169300
      2 C14          0.8540     1.2190    -1.4360 ca         1 GFZ      -0.034000
      3 C5           6.4230    -0.8440    -0.9400 c6         1 GFZ      -0.084400
      4 C6           4.9660    -0.9940    -0.5440 c6         1 GFZ       0.195000
      5 C11          2.1960    -1.1500    -0.9260 ca         1 GFZ      -0.271600
      6 C7           4.8560    -0.7720     0.9620 c6         1 GFZ      -0.084400
      7 C8           5.5310     0.5130     1.4120 c6         1 GFZ       0.169300
      8 C9           4.4010    -2.3440    -0.9660 c6         1 GFZ      -0.208400
      9 C10          2.9140    -2.4230    -0.7410 c          1 GFZ       0.595700
     10 C12          0.8030    -1.1020    -0.8750 ca         1 GFZ      -0.003000
     11 C13          0.1100     0.0720    -1.1210 cp         1 GFZ      -0.099000
     12 N1           6.9350     0.5460     1.0310 n3         1 GFZ      -0.721600
     13 N2          -6.2170     0.1440     0.3560 ns         1 GFZ      -0.143000
     14 C3           7.5150     1.8020     3.0800 c3         1 GFZ      -0.092100
     15 C1           9.1140     1.7020     1.1880 c3         1 GFZ      -0.092100
     16 C2           7.6320     1.7230     1.5590 c3         1 GFZ       0.187500
     17 O1           2.3450    -3.4610    -0.4770 o          1 GFZ      -0.519100
     18 C15          2.2320     1.2000    -1.4720 ca         1 GFZ      -0.166000
     19 C16          2.9190     0.0160    -1.2040 ca         1 GFZ       0.197100
     20 O2           4.2540     0.0500    -1.2370 os         1 GFZ      -0.341100
     21 C17         -1.3610     0.1200    -1.0480 cp         1 GFZ       0.001000
     22 C18         -2.1040     0.8870    -1.9490 ca         1 GFZ      -0.113000
     23 C19         -3.4840     0.9270    -1.8800 ca         1 GFZ      -0.069000
     24 C20         -4.1660     0.2220    -0.8910 ca         1 GFZ      -0.157600
     25 C21         -3.4330    -0.5520     0.0050 ca         1 GFZ      -0.069000
     26 C22         -2.0520    -0.6040    -0.0760 ca         1 GFZ      -0.113000
     27 C23         -5.6570     0.2950    -0.8720 c          1 GFZ       0.622700
     28 O3          -6.2930     0.4900    -1.8930 o          1 GFZ      -0.577100
     29 C24         -7.5690     0.1310     0.7140 ca         1 GFZ      -0.019000
     30 C25         -8.6260     0.0720    -0.1960 ca         1 GFZ      -0.150000
     31 C26         -9.9330     0.0450     0.2740 ca         1 GFZ      -0.083500
     32 C27        -10.2140     0.0770     1.6320 ca         1 GFZ      -0.137000
     33 C28         -9.1610     0.1330     2.5340 ca         1 GFZ      -0.083500
     34 C29         -7.8540     0.1600     2.0820 ca         1 GFZ      -0.150000
     35 H1           8.1010     0.4180    -0.7000 h1         1 GFZ       0.039450
     36 H2           6.6070     1.3140    -0.9240 h1         1 GFZ       0.039450
     37 H3           0.3440     2.1550    -1.6250 ha         1 GFZ       0.119000
     38 H4           6.5260    -0.8870    -2.0270 hc         1 GFZ       0.060950
     39 H5           6.9690    -1.6990    -0.5330 hc         1 GFZ       0.060950
     40 H6           3.8140    -0.7630     1.2950 hc         1 GFZ       0.060950
     41 H7           5.3330    -1.6210     1.4600 hc         1 GFZ       0.060950
     42 H8           4.9830     1.3880     1.0210 h1         1 GFZ       0.039450
     43 H9           5.4440     0.5560     2.4970 h1         1 GFZ       0.039450
     44 H10          4.5780    -2.5000    -2.0380 hc         1 GFZ       0.085200
     45 H11          4.9040    -3.1550    -0.4380 hc         1 GFZ       0.085200
     46 H12          0.2650    -2.0180    -0.6650 ha         1 GFZ       0.135000
     47 H14         -5.5820     0.1300     1.1380 hn         1 GFZ       0.152000
     48 H15          6.5080     2.0290     3.4250 hc         1 GFZ       0.038533
     49 H16          7.8300     0.8620     3.5360 hc         1 GFZ       0.038533
     50 H17          8.1620     2.5930     3.4600 hc         1 GFZ       0.038533
     51 H18          9.2920     1.8360     0.1220 hc         1 GFZ       0.038533
     52 H19          9.6340     2.5140     1.6980 hc         1 GFZ       0.038533
     53 H20          9.5740     0.7610     1.4960 hc         1 GFZ       0.038533
     54 H21          7.1890     2.6430     1.1350 h1         1 GFZ       0.019700
     55 H22          2.7860     2.1030    -1.6900 ha         1 GFZ       0.132000
     56 H23         -1.6010     1.4410    -2.7310 ha         1 GFZ       0.120500
     57 H24         -4.0360     1.5140    -2.6020 ha         1 GFZ       0.125500
     58 H25         -3.9230    -1.1430     0.7690 ha         1 GFZ       0.125500
     59 H26         -1.5060    -1.2010     0.6440 ha         1 GFZ       0.120500
     60 H27         -8.4480     0.0460    -1.2580 ha         1 GFZ       0.126500
     61 H28        -10.7410    -0.0020    -0.4430 ha         1 GFZ       0.112500
     62 H29        -11.2380     0.0570     1.9810 ha         1 GFZ       0.115000
     63 H30         -9.3520     0.1570     3.5990 ha         1 GFZ       0.112500
     64 H31         -7.0430     0.2040     2.8000 ha         1 GFZ       0.126500
@<TRIPOS>BOND
     1     1     3 1   
     2     1    12 1   
     3     1    35 1   
     4     1    36 1   
     5     2    11 ar  
     6     2    18 ar  
     7     2    37 1   
     8     3     4 1   
     9     3    38 1   
    10     3    39 1   
    11     4     6 1   
    12     4     8 1   
    13     4    20 1   
    14     5     9 1   
    15     5    10 ar  
    16     5    19 ar  
    17     6     7 1   
    18     6    40 1   
    19     6    41 1   
    20     7    12 1   
    21     7    42 1   
    22     7    43 1   
    23     8     9 1   
    24     8    44 1   
    25     8    45 1   
    26     9    17 2   
    27    10    11 ar  
    28    10    46 1   
    29    11    21 1   
    30    12    16 1   
    31    13    27 1   
    32    13    29 1   
    33    13    47 1   
    34    14    16 1   
    35    14    48 1   
    36    14    49 1   
    37    14    50 1   
    38    15    16 1   
    39    15    51 1   
    40    15    52 1   
    41    15    53 1   
    42    16    54 1   
    43    18    19 ar  
    44    18    55 1   
    45    19    20 1   
    46    21    22 ar  
    47    21    26 ar  
    48    22    23 ar  
    49    22    56 1   
    50    23    24 ar  
    51    23    57 1   
    52    24    25 ar  
    53    24    27 1   
    54    25    26 ar  
    55    25    58 1   
    56    26    59 1   
    57    27    28 2   
    58    29    30 ar  
    59    29    34 ar  
    60    30    31 ar  
    61    30    60 1   
    62    31    32 ar  
    63    31    61 1   
    64    32    33 ar  
    65    32    62 1   
    66    33    34 ar  
    67    33    63 1   
    68    34    64 1   
@<TRIPOS>SUBSTRUCTURE
     1 GFZ         1 TEMP              0 ****  ****    0 ROOT
