@<TRIPOS>MOLECULE
GFZ
   64    68     1     0     0
SMALL
No Charge or Current Charge


@<TRIPOS>ATOM
      1 C4           7.1950     0.1840    -0.4980 c6         1 GFZ       0.169300
      2 C14          0.8680     1.2950    -1.4180 ca         1 GFZ      -0.034000
      3 C5           6.4390    -1.1310    -0.8000 c6         1 GFZ      -0.084400
      4 C6           4.9710    -1.0760    -0.3150 c6         1 GFZ       0.195000
      5 C11          2.1170    -1.0920    -0.6140 ca         1 GFZ      -0.271600
      6 C7           4.9800    -0.6980     1.1910 c6         1 GFZ      -0.084400
      7 C8           5.7650     0.6090     1.4480 c6         1 GFZ       0.169300
      8 C9           4.2850    -2.4400    -0.5450 c6         1 GFZ      -0.208400
      9 C10          2.8020    -2.3610    -0.2200 c          1 GFZ       0.595700
     10 C12          0.7120    -0.9770    -0.5720 ca         1 GFZ      -0.003000
     11 C13          0.0620     0.2180    -0.9720 cp         1 GFZ      -0.099000
     12 N1           7.1780     0.5270     0.9600 n3         1 GFZ      -0.721600
     13 N2          -6.4590     0.0660     0.2070 ns         1 GFZ      -0.143000
     14 C3           7.9950     2.0810     2.8080 c3         1 GFZ      -0.092100
     15 C1           9.4640     1.6440     0.8100 c3         1 GFZ      -0.092100
     16 C2           7.9930     1.7420     1.2940 c3         1 GFZ       0.187500
     17 O1           2.2260    -3.2640     0.3720 o          1 GFZ      -0.519100
     18 C15          2.2670     1.1840    -1.4530 ca         1 GFZ      -0.166000
     19 C16          2.8910    -0.0000    -1.0410 ca         1 GFZ       0.197100
     20 O2           4.2670    -0.0680    -1.0770 os         1 GFZ      -0.341100
     21 C17         -1.4300     0.3360    -0.9300 cp         1 GFZ       0.001000
     22 C18         -2.1360     1.0680    -1.9130 ca         1 GFZ      -0.113000
     23 C19         -3.5360     1.1790    -1.8760 ca         1 GFZ      -0.069000
     24 C20         -4.2860     0.5620    -0.8490 ca         1 GFZ      -0.157600
     25 C21         -3.5870    -0.1720     0.1410 ca         1 GFZ      -0.069000
     26 C22         -2.1860    -0.2800     0.0960 ca         1 GFZ      -0.113000
     27 C23         -5.8000     0.7030    -0.8390 c          1 GFZ       0.622700
     28 O3          -6.3790     1.3470    -1.7080 o          1 GFZ      -0.577100
     29 C24         -7.8340    -0.0470     0.5550 ca         1 GFZ      -0.019000
     30 C25         -8.8900     0.4660    -0.2330 ca         1 GFZ      -0.150000
     31 C26        -10.2260     0.3110     0.1780 ca         1 GFZ      -0.083500
     32 C27        -10.5220    -0.3570     1.3760 ca         1 GFZ      -0.137000
     33 C28         -9.4820    -0.8730     2.1650 ca         1 GFZ      -0.083500
     34 C29         -8.1470    -0.7180     1.7540 ca         1 GFZ      -0.150000
     35 H1           8.2220     0.0470    -0.8600 h1         1 GFZ       0.039450
     36 H2           6.7520     1.0010    -1.0870 h1         1 GFZ       0.039450
     37 H3           0.4060     2.2310    -1.7240 ha         1 GFZ       0.119000
     38 H4           6.4720    -1.3300    -1.8790 hc         1 GFZ       0.060950
     39 H5           6.9630    -1.9650    -0.3150 hc         1 GFZ       0.060950
     40 H6           3.9570    -0.5820     1.5730 hc         1 GFZ       0.060950
     41 H7           5.4350    -1.5090     1.7750 hc         1 GFZ       0.060950
     42 H8           5.2420     1.4480     0.9640 h1         1 GFZ       0.039450
     43 H9           5.7300     0.7890     2.5300 h1         1 GFZ       0.039450
     44 H10          4.3470    -2.6390    -1.6230 hc         1 GFZ       0.085200
     45 H11          4.7570    -3.2710    -0.0050 hc         1 GFZ       0.085200
     46 H12          0.1140    -1.8280    -0.2490 ha         1 GFZ       0.135000
     47 H14         -5.8430    -0.4130     0.8490 hn         1 GFZ       0.152000
     48 H15          7.0080     2.4160     3.1470 hc         1 GFZ       0.038533
     49 H16          8.2950     1.2090     3.4020 hc         1 GFZ       0.038533
     50 H17          8.6930     2.8980     3.0250 hc         1 GFZ       0.038533
     51 H18          9.5310     1.6650    -0.2840 hc         1 GFZ       0.038533
     52 H19         10.0530     2.4940     1.1740 hc         1 GFZ       0.038533
     53 H20          9.9340     0.7220     1.1740 hc         1 GFZ       0.038533
     54 H21          7.5530     2.6080     0.7810 h1         1 GFZ       0.019700
     55 H22          2.8720     2.0220    -1.7890 ha         1 GFZ       0.132000
     56 H23         -1.5950     1.5450    -2.7260 ha         1 GFZ       0.120500
     57 H24         -4.0370     1.7490    -2.6560 ha         1 GFZ       0.125500
     58 H25         -4.1100    -0.6650     0.9560 ha         1 GFZ       0.125500
     59 H26         -1.6800    -0.8390     0.8790 ha         1 GFZ       0.120500
     60 H27         -8.7010     0.9830    -1.1680 ha         1 GFZ       0.126500
     61 H28        -11.0320     0.7080    -0.4350 ha         1 GFZ       0.112500
     62 H29        -11.5560    -0.4760     1.6930 ha         1 GFZ       0.115000
     63 H30         -9.7090    -1.3920     3.0930 ha         1 GFZ       0.112500
     64 H31         -7.3500    -1.1230     2.3740 ha         1 GFZ       0.126500
@<TRIPOS>BOND
     1     1     3 1   
     2     1    12 1   
     3     1    35 1   
     4     1    36 1   
     5     2    11 ar  
     6     2    18 ar  
     7     2    37 1   
     8     3     4 1   
     9     3    38 1   
    10     3    39 1   
    11     4     6 1   
    12     4     8 1   
    13     4    20 1   
    14     5     9 1   
    15     5    10 ar  
    16     5    19 ar  
    17     6     7 1   
    18     6    40 1   
    19     6    41 1   
    20     7    12 1   
    21     7    42 1   
    22     7    43 1   
    23     8     9 1   
    24     8    44 1   
    25     8    45 1   
    26     9    17 2   
    27    10    11 ar  
    28    10    46 1   
    29    11    21 1   
    30    12    16 1   
    31    13    27 1   
    32    13    29 1   
    33    13    47 1   
    34    14    16 1   
    35    14    48 1   
    36    14    49 1   
    37    14    50 1   
    38    15    16 1   
    39    15    51 1   
    40    15    52 1   
    41    15    53 1   
    42    16    54 1   
    43    18    19 ar  
    44    18    55 1   
    45    19    20 1   
    46    21    22 ar  
    47    21    26 ar  
    48    22    23 ar  
    49    22    56 1   
    50    23    24 ar  
    51    23    57 1   
    52    24    25 ar  
    53    24    27 1   
    54    25    26 ar  
    55    25    58 1   
    56    26    59 1   
    57    27    28 2   
    58    29    30 ar  
    59    29    34 ar  
    60    30    31 ar  
    61    30    60 1   
    62    31    32 ar  
    63    31    61 1   
    64    32    33 ar  
    65    32    62 1   
    66    33    34 ar  
    67    33    63 1   
    68    34    64 1   
@<TRIPOS>SUBSTRUCTURE
     1 GFZ         1 TEMP              0 ****  ****    0 ROOT
