@<TRIPOS>MOLECULE
GG0
   16    15     1     0     0
SMALL
bcc


@<TRIPOS>ATOM
      1 C02        231.8710   221.3660   262.8640 c3         1 GG0       0.060800
      2 C03        231.4950   219.9340   263.2070 c          1 GG0       0.654100
      3 C06        229.6040   218.4100   263.5560 c3         1 GG0      -0.058000
      4 C07        228.0610   218.4800   263.5010 c          1 GG0       0.924600
      5 N01        233.2030   221.4230   262.2950 n8         1 GG0      -0.870800
      6 N05        230.1890   219.6640   263.1590 ns         1 GG0      -0.530900
      7 O04        232.3410   219.1130   263.5440 o          1 GG0      -0.656100
      8 O08        227.4740   217.4300   263.8130 o          1 GG0      -0.835300
      9 O09        227.5580   219.5670   263.1540 o          1 GG0      -0.835300
     10 H1         231.7500   221.9530   263.7880 h1         1 GG0       0.035700
     11 H2         231.1570   221.7790   262.1490 h1         1 GG0       0.035700
     12 H3         229.9420   217.5960   262.9070 h1         1 GG0       0.035700
     13 H4         229.9110   218.1410   264.5710 h1         1 GG0       0.035700
     14 H5         233.4520   222.3910   262.1390 hn         1 GG0       0.334300
     15 H6         233.8690   221.0690   262.9690 hn         1 GG0       0.334300
     16 H8         229.5200   220.3690   262.8850 hn         1 GG0       0.337500
@<TRIPOS>BOND
     1     1     2 1   
     2     1     5 1   
     3     1    10 1   
     4     1    11 1   
     5     2     6 1   
     6     2     7 2   
     7     3     4 1   
     8     3     6 1   
     9     3    12 1   
    10     3    13 1   
    11     4     8 1   
    12     4     9 1   
    13     5    14 1   
    14     5    15 1   
    15     6    16 1   
@<TRIPOS>SUBSTRUCTURE
     1 GG0         1 TEMP              0 ****  ****    0 ROOT
