@<TRIPOS>MOLECULE
GG0
   16    15     1     0     0
SMALL
No Charge or Current Charge


@<TRIPOS>ATOM
      1 C02        231.9330   221.3460   262.8200 c3         1 GG0       0.060800
      2 C03        231.5230   219.8760   263.1920 c          1 GG0       0.587100
      3 C06        229.5290   218.3300   263.4840 c3         1 GG0      -0.058000
      4 C07        227.9810   218.4360   263.5810 c          1 GG0       0.714000
      5 N01        233.3430   221.5810   262.3500 n8         1 GG0      -0.981200
      6 N05        230.1660   219.6340   263.1780 ns         1 GG0      -0.463900
      7 O04        232.3340   219.0000   263.4800 o          1 GG0      -0.656100
      8 O08        227.4060   217.7300   264.3980 o          1 GG0      -0.730000
      9 O09        227.4050   219.2530   262.8740 o          1 GG0      -0.730000
     10 H1         231.7530   221.9650   263.7090 h1         1 GG0       0.035700
     11 H2         231.2500   221.6960   262.0340 h1         1 GG0       0.035700
     12 H3         229.7780   217.6130   262.6910 h1         1 GG0       0.035700
     13 H4         229.9190   217.9540   264.4380 h1         1 GG0       0.035700
     14 H5         233.5160   222.5910   262.2720 hn         1 GG0       0.389500
     15 H6         233.9970   221.2720   263.0820 hn         1 GG0       0.389500
     16 H8         229.5630   220.4090   262.9190 hn         1 GG0       0.337500
@<TRIPOS>BOND
     1     1     2 1   
     2     1     5 1   
     3     1    10 1   
     4     1    11 1   
     5     2     6 1   
     6     2     7 2   
     7     3     4 1   
     8     3     6 1   
     9     3    12 1   
    10     3    13 1   
    11     4     8 1   
    12     4     9 1   
    13     5    14 1   
    14     5    15 1   
    15     6    16 1   
@<TRIPOS>SUBSTRUCTURE
     1 GG0         1 TEMP              0 ****  ****    0 ROOT
