@<TRIPOS>MOLECULE
GG1
   51    54     1     0     0
SMALL
abcg2


@<TRIPOS>ATOM
      1 N1          -0.0360    -4.5910    -0.1300 n          1 GG1      -0.301000
      2 C4           0.8430    -7.0610     2.4700 c3         1 GG1       0.158300
      3 C5           0.9310    -4.6330     2.5050 c          1 GG1       0.592600
      4 C6           0.2420    -0.9810     0.5040 ca         1 GG1      -0.034000
      5 C7           0.9890     0.2780     2.4750 cg         1 GG1      -0.102000
      6 C8           0.7290    -0.9590     1.8190 ca         1 GG1      -0.024000
      7 C10         -2.4410    -8.0620     5.0970 ca         1 GG1      -0.119600
      8 C13         -1.2060    -7.6760     5.6090 ca         1 GG1      -0.097500
      9 C15         -0.1530    -7.3490     4.7670 ca         1 GG1      -0.117500
     10 C17         -1.5350    -7.8010     2.8670 ca         1 GG1      -0.117500
     11 C20          0.2450     3.2160     4.2660 ca         1 GG1      -0.080300
     12 C21         -0.3030    -7.4060     3.3850 ca         1 GG1      -0.157300
     13 C22          0.6950    -3.3730     1.8050 ca         1 GG1      -0.212600
     14 C26          1.2210     1.3280     3.0190 c1         1 GG1      -0.133100
     15 O6          -3.3720    -8.3480     7.2450 o          1 GG1      -0.720000
     16 O5          -4.6690    -8.7360     5.4730 o          1 GG1      -0.720000
     17 C19         -2.5870    -8.1200     3.7130 ca         1 GG1      -0.097500
     18 N6           0.6450    -5.7770     1.7860 n          1 GG1      -0.361400
     19 O2           1.3520    -4.6950     3.6420 o          1 GG1      -0.512000
     20 C3           0.2110    -3.3860     0.4960 ca         1 GG1       0.132600
     21 C2          -0.0120    -2.1660    -0.1500 ca         1 GG1      -0.183000
     22 C25         -0.5370    -4.5820    -1.4950 c3         1 GG1       0.085300
     23 C1           0.1680    -5.8020     0.4830 c          1 GG1       0.626000
     24 O1          -0.0580    -6.8540    -0.0810 o          1 GG1      -0.556000
     25 C23          0.9530    -2.1720     2.4540 ca         1 GG1       0.009000
     26 C11          1.4930     2.6000     3.6760 c3         1 GG1       0.062000
     27 C16         -0.4080     4.2580     3.6180 ca         1 GG1      -0.099000
     28 C18         -1.5600     4.8130     4.1580 ca         1 GG1      -0.110500
     29 C14         -0.2750     2.7350     5.4630 ca         1 GG1      -0.099000
     30 C12         -1.4250     3.2880     6.0050 ca         1 GG1      -0.110500
     31 C9          -2.0720     4.3300     5.3530 ca         1 GG1      -0.109000
     32 H41          1.7750    -7.0030     3.0270 h1         1 GG1       0.063200
     33 H42          0.9690    -7.8250     1.7100 h1         1 GG1       0.063200
     34 H6           0.0620    -0.0480    -0.0120 ha         1 GG1       0.116000
     35 H13         -1.0700    -7.6270     6.6820 ha         1 GG1       0.127500
     36 H15          0.7950    -7.0450     5.1900 ha         1 GG1       0.095500
     37 H17         -1.6740    -7.8700     1.7960 ha         1 GG1       0.095500
     38 H19         -3.5350    -8.4290     3.2940 ha         1 GG1       0.127500
     39 H2          -0.3840    -2.1260    -1.1630 ha         1 GG1       0.120000
     40 H251         0.1850    -4.1130    -2.1620 h1         1 GG1       0.053367
     41 H252        -1.4800    -4.0400    -1.5490 h1         1 GG1       0.053367
     42 H253        -0.7050    -5.5970    -1.8280 h1         1 GG1       0.053367
     43 H23          1.3280    -2.1920     3.4680 ha         1 GG1       0.147000
     44 H111         2.2400     2.4440     4.4590 hc         1 GG1       0.060200
     45 H112         1.9450     3.2840     2.9550 hc         1 GG1       0.060200
     46 H16         -0.0140     4.6410     2.6840 ha         1 GG1       0.113500
     47 H18         -2.0570     5.6250     3.6430 ha         1 GG1       0.111500
     48 H14          0.2260     1.9240     5.9780 ha         1 GG1       0.113500
     49 H12         -1.8150     2.9080     6.9400 ha         1 GG1       0.111500
     50 H9          -2.9680     4.7630     5.7760 ha         1 GG1       0.110000
     51 C24         -3.5990    -8.4140     6.0220 c          1 GG1       0.712600
@<TRIPOS>BOND
     1     1    20 1   
     2     1    22 1   
     3     1    23 1   
     4     2    12 1   
     5     2    18 1   
     6     2    32 1   
     7     2    33 1   
     8     3    13 1   
     9     3    18 1   
    10     3    19 2   
    11     4     6 ar  
    12     4    21 ar  
    13     4    34 1   
    14     5     6 1   
    15     5    14 3   
    16     6    25 ar  
    17     7     8 ar  
    18     7    17 ar  
    19     7    51 1   
    20     8     9 ar  
    21     8    35 1   
    22     9    12 ar  
    23     9    36 1   
    24    10    12 ar  
    25    10    17 ar  
    26    10    37 1   
    27    11    26 1   
    28    11    27 ar  
    29    11    29 ar  
    30    13    20 ar  
    31    13    25 ar  
    32    14    26 1   
    33    15    51 1   
    34    16    51 1   
    35    17    38 1   
    36    18    23 1   
    37    20    21 ar  
    38    21    39 1   
    39    22    40 1   
    40    22    41 1   
    41    22    42 1   
    42    23    24 2   
    43    25    43 1   
    44    26    44 1   
    45    26    45 1   
    46    27    28 ar  
    47    27    46 1   
    48    28    31 ar  
    49    28    47 1   
    50    29    30 ar  
    51    29    48 1   
    52    30    31 ar  
    53    30    49 1   
    54    31    50 1   
@<TRIPOS>SUBSTRUCTURE
     1 GG1         1 TEMP              0 ****  ****    0 ROOT
