@<TRIPOS>MOLECULE
GG1
   51    54     1     0     0
SMALL
No Charge or Current Charge


@<TRIPOS>ATOM
      1 N1          -0.5600    -4.3770     0.1150 n          1 GG1      -0.301000
      2 C4           0.8970    -7.1770     2.1820 c3         1 GG1       0.158300
      3 C5           0.9510    -4.7230     2.5000 c          1 GG1       0.592600
      4 C6          -0.2790    -0.7870     1.2470 ca         1 GG1      -0.034000
      5 C7           0.8410     0.2080     3.1950 cg         1 GG1      -0.102000
      6 C8           0.4870    -0.9400     2.4120 ca         1 GG1      -0.024000
      7 C10         -2.0460    -8.9130     4.9100 ca         1 GG1      -0.119600
      8 C13         -0.9380    -8.1860     5.4040 ca         1 GG1      -0.097500
      9 C15          0.0080    -7.6290     4.5260 ca         1 GG1      -0.117500
     10 C17         -1.2280    -8.5080     2.6340 ca         1 GG1      -0.117500
     11 C20          0.3740     3.4620     4.4200 ca         1 GG1      -0.080300
     12 C21         -0.1310    -7.7830     3.1340 ca         1 GG1      -0.157300
     13 C22          0.5400    -3.3580     2.0460 ca         1 GG1      -0.212600
     14 C26          1.1320     1.1870     3.8520 c1         1 GG1      -0.133100
     15 O6          -2.9180    -9.3630     7.0640 o          1 GG1      -0.720000
     16 O5          -4.0150   -10.1380     5.3880 o          1 GG1      -0.720000
     17 C19         -2.1750    -9.0660     3.5090 ca         1 GG1      -0.097500
     18 N6           0.5350    -5.8090     1.7210 n          1 GG1      -0.361400
     19 O2           1.6260    -4.8670     3.5110 o          1 GG1      -0.512000
     20 C3          -0.2020    -3.2060     0.8650 ca         1 GG1       0.132600
     21 C2          -0.6270    -1.9120     0.4820 ca         1 GG1      -0.183000
     22 C25         -1.2870    -4.2130    -1.1750 c3         1 GG1       0.085300
     23 C1          -0.2090    -5.6790     0.5380 c          1 GG1       0.626000
     24 O1          -0.5340    -6.6640    -0.1130 o          1 GG1      -0.556000
     25 C23          0.8910    -2.2240     2.8130 ca         1 GG1       0.009000
     26 C11          1.4450     2.3960     4.6240 c3         1 GG1       0.062000
     27 C16          0.4950     4.4030     3.3770 ca         1 GG1      -0.099000
     28 C18         -0.4940     5.3840     3.1870 ca         1 GG1      -0.110500
     29 C14         -0.7500     3.5140     5.2690 ca         1 GG1      -0.099000
     30 C12         -1.7380     4.4960     5.0800 ca         1 GG1      -0.110500
     31 C9          -1.6110     5.4310     4.0390 ca         1 GG1      -0.109000
     32 H41          1.8770    -7.1550     2.6760 h1         1 GG1       0.063200
     33 H42          1.0250    -7.8430     1.3190 h1         1 GG1       0.063200
     34 H6          -0.6070     0.2020     0.9340 ha         1 GG1       0.116000
     35 H13         -0.8050    -8.0490     6.4750 ha         1 GG1       0.127500
     36 H15          0.8510    -7.0770     4.9330 ha         1 GG1       0.095500
     37 H17         -1.3500    -8.6430     1.5620 ha         1 GG1       0.095500
     38 H19         -3.0140    -9.6210     3.0930 ha         1 GG1       0.127500
     39 H2          -1.2270    -1.7530    -0.4080 ha         1 GG1       0.120000
     40 H251        -0.7430    -3.5100    -1.8170 h1         1 GG1       0.053367
     41 H252        -2.2930    -3.8190    -0.9800 h1         1 GG1       0.053367
     42 H253        -1.3870    -5.1570    -1.7230 h1         1 GG1       0.053367
     43 H23          1.4720    -2.3350     3.7270 ha         1 GG1       0.147000
     44 H111         1.5310     2.1310     5.6850 hc         1 GG1       0.060200
     45 H112         2.4290     2.7720     4.3160 hc         1 GG1       0.060200
     46 H16          1.3550     4.3720     2.7110 ha         1 GG1       0.113500
     47 H18         -0.3940     6.1070     2.3810 ha         1 GG1       0.111500
     48 H14         -0.8580     2.7920     6.0760 ha         1 GG1       0.113500
     49 H12         -2.6030     4.5300     5.7390 ha         1 GG1       0.111500
     50 H9          -2.3760     6.1910     3.8930 ha         1 GG1       0.110000
     51 C24         -3.0710    -9.5170     5.8600 c          1 GG1       0.712600
@<TRIPOS>BOND
     1     1    20 1   
     2     1    22 1   
     3     1    23 1   
     4     2    12 1   
     5     2    18 1   
     6     2    32 1   
     7     2    33 1   
     8     3    13 1   
     9     3    18 1   
    10     3    19 2   
    11     4     6 ar  
    12     4    21 ar  
    13     4    34 1   
    14     5     6 1   
    15     5    14 3   
    16     6    25 ar  
    17     7     8 ar  
    18     7    17 ar  
    19     7    51 1   
    20     8     9 ar  
    21     8    35 1   
    22     9    12 ar  
    23     9    36 1   
    24    10    12 ar  
    25    10    17 ar  
    26    10    37 1   
    27    11    26 1   
    28    11    27 ar  
    29    11    29 ar  
    30    13    20 ar  
    31    13    25 ar  
    32    14    26 1   
    33    15    51 1   
    34    16    51 1   
    35    17    38 1   
    36    18    23 1   
    37    20    21 ar  
    38    21    39 1   
    39    22    40 1   
    40    22    41 1   
    41    22    42 1   
    42    23    24 2   
    43    25    43 1   
    44    26    44 1   
    45    26    45 1   
    46    27    28 ar  
    47    27    46 1   
    48    28    31 ar  
    49    28    47 1   
    50    29    30 ar  
    51    29    48 1   
    52    30    31 ar  
    53    30    49 1   
    54    31    50 1   
@<TRIPOS>SUBSTRUCTURE
     1 GG1         1 TEMP              0 ****  ****    0 ROOT
