@<TRIPOS>MOLECULE
GG2
   59    63     1     0     0
SMALL
abcg2


@<TRIPOS>ATOM
      1 C1           7.2090    10.5890    -2.0400 ca         1 GG2       0.161100
      2 C2           6.2400    11.0340    -2.9430 ca         1 GG2      -0.170500
      3 C3           4.9490    11.2710    -2.5170 ca         1 GG2      -0.037000
      4 O4           8.4360    10.3800    -2.5420 os         1 GG2      -0.338100
      5 N6           2.8520    12.5960    -0.8050 nc         1 GG2      -0.495800
      6 C7           1.1770     7.1070     0.5100 ca         1 GG2      -0.041000
      7 C8           2.4210     9.0640    -0.0740 c          1 GG2       0.608600
      8 C10          1.6010    12.5790    -0.3630 cd         1 GG2       0.186500
      9 C11          0.7950    13.8160    -0.2600 c          1 GG2       0.541600
     10 C12          1.2120    11.2740    -0.0300 cd         1 GG2      -0.102300
     11 C13          2.3240    10.5140    -0.2950 cc         1 GG2      -0.228600
     12 C14          0.3710     4.9080    -0.0410 ca         1 GG2      -0.091500
     13 C15          9.4570     9.9220    -1.6750 c3         1 GG2       0.146900
     14 C16          1.0290     4.3850     1.0620 ca         1 GG2      -0.050000
     15 C19          1.7720     2.1380     0.7850 c          1 GG2       0.569000
     16 C20         -0.2330     2.6430     2.2110 c6         1 GG2       0.118000
     17 C21         -0.1450     1.2250     2.7370 c6         1 GG2      -0.092400
     18 C22          1.8300     6.5840     1.6210 ca         1 GG2      -0.105500
     19 C24         -0.0510     9.1940     0.0090 c6         1 GG2       0.108000
     20 C4           4.6120    11.0690    -1.1850 ca         1 GG2      -0.047200
     21 C5           5.5650    10.6370    -0.2820 ca         1 GG2      -0.037000
     22 C6           6.8640    10.3940    -0.7030 ca         1 GG2      -0.170500
     23 N1           3.2880    11.3550    -0.7540 na         1 GG2       0.291000
     24 N5           1.2220     8.5000     0.2480 n          1 GG2      -0.236400
     25 C44          0.4500     6.2640    -0.3220 ca         1 GG2      -0.105500
     26 N2           0.9140     3.0030     1.3760 n          1 GG2      -0.252400
     27 C18          1.7590     5.2270     1.8910 ca         1 GG2      -0.091500
     28 C25          0.2330     0.2810     1.6100 c6         1 GG2      -0.074400
     29 C23          1.6080     0.6680     1.0910 c6         1 GG2      -0.158400
     30 O1          -0.3270    13.7850     0.2280 o          1 GG2      -0.611100
     31 N3           1.3790    14.9260    -0.7280 nt         1 GG2      -0.594000
     32 C17         -0.0250    10.6360     0.4900 c6         1 GG2      -0.012100
     33 H2           6.5070    11.1870    -3.9810 ha         1 GG2       0.129500
     34 H3           4.2010    11.6110    -3.2230 ha         1 GG2       0.130500
     35 H14         -0.2020     4.2560    -0.6880 ha         1 GG2       0.122000
     36 H151         9.6590    10.6340    -0.8720 h1         1 GG2       0.044367
     37 H152        10.3520     9.8160    -2.2810 h1         1 GG2       0.044367
     38 H153         9.2110     8.9520    -1.2340 h1         1 GG2       0.044367
     39 H201        -1.1500     2.7650     1.6250 h1         1 GG2       0.042700
     40 H202        -0.2830     3.3540     3.0380 h1         1 GG2       0.042700
     41 H211        -1.1090     0.9620     3.1740 hc         1 GG2       0.053200
     42 H212         0.6000     1.1630     3.5350 hc         1 GG2       0.053200
     43 H22          2.3820     7.2370     2.2830 ha         1 GG2       0.123500
     44 H241        -0.8280     8.6420     0.5330 h1         1 GG2       0.051700
     45 H242        -0.2910     9.1700    -1.0580 h1         1 GG2       0.051700
     46 H5           5.3070    10.4940     0.7590 ha         1 GG2       0.130500
     47 H6           7.5910    10.0610     0.0260 ha         1 GG2       0.129500
     48 H44         -0.0560     6.6600    -1.1940 ha         1 GG2       0.123500
     49 H18          2.2620     4.8220     2.7590 ha         1 GG2       0.122000
     50 H251        -0.5070     0.3470     0.8060 hc         1 GG2       0.049700
     51 H252         0.2410    -0.7550     1.9490 hc         1 GG2       0.049700
     52 H231         1.8750     0.1140     0.1890 hc         1 GG2       0.072700
     53 H232         2.3660     0.4160     1.8400 hc         1 GG2       0.072700
     54 HN31         2.3060    14.9100    -1.1200 hn         1 GG2       0.324000
     55 HN32         0.9050    15.8120    -0.6710 hn         1 GG2       0.324000
     56 H171        -0.0450    10.6830     1.5830 hc         1 GG2       0.077700
     57 H172        -0.9200    11.1410     0.1330 hc         1 GG2       0.077700
     58 O3           3.4660     8.4430    -0.1410 o          1 GG2      -0.525000
     59 O2           2.6690     2.5340     0.0530 o          1 GG2      -0.549000
@<TRIPOS>BOND
     1     1     2 ar  
     2     1     4 1   
     3     1    22 ar  
     4     2     3 ar  
     5     2    33 1   
     6     3    20 ar  
     7     3    34 1   
     8     4    13 1   
     9     5     8 2   
    10     5    23 1   
    11     6    18 ar  
    12     6    24 1   
    13     6    25 ar  
    14     7    11 1   
    15     7    24 1   
    16     7    58 2   
    17     8     9 1   
    18     8    10 1   
    19     9    30 2   
    20     9    31 1   
    21    10    11 2   
    22    10    32 1   
    23    11    23 1   
    24    12    14 ar  
    25    12    25 ar  
    26    12    35 1   
    27    13    36 1   
    28    13    37 1   
    29    13    38 1   
    30    14    26 1   
    31    14    27 ar  
    32    15    26 1   
    33    15    29 1   
    34    15    59 2   
    35    16    17 1   
    36    16    26 1   
    37    16    39 1   
    38    16    40 1   
    39    17    28 1   
    40    17    41 1   
    41    17    42 1   
    42    18    27 ar  
    43    18    43 1   
    44    19    24 1   
    45    19    32 1   
    46    19    44 1   
    47    19    45 1   
    48    20    21 ar  
    49    20    23 1   
    50    21    22 ar  
    51    21    46 1   
    52    22    47 1   
    53    25    48 1   
    54    27    49 1   
    55    28    29 1   
    56    28    50 1   
    57    28    51 1   
    58    29    52 1   
    59    29    53 1   
    60    31    54 1   
    61    31    55 1   
    62    32    56 1   
    63    32    57 1   
@<TRIPOS>SUBSTRUCTURE
     1 GG2         1 TEMP              0 ****  ****    0 ROOT
