@<TRIPOS>MOLECULE
GG2
   59    63     1     0     0
SMALL
No Charge or Current Charge


@<TRIPOS>ATOM
      1 C1           7.1950    10.4950    -2.1220 ca         1 GG2       0.161100
      2 C2           6.2450    10.9560    -3.0480 ca         1 GG2      -0.170500
      3 C3           4.9450    11.2890    -2.6300 ca         1 GG2      -0.037000
      4 O4           8.4540    10.1830    -2.5920 os         1 GG2      -0.338100
      5 N6           2.9110    12.8140    -0.8530 nc         1 GG2      -0.495800
      6 C7           0.9860     7.2000     0.6550 ca         1 GG2      -0.041000
      7 C8           2.3780     9.1200    -0.2140 c          1 GG2       0.608600
      8 C10          1.6740    12.7450    -0.3580 cd         1 GG2       0.186500
      9 C11          0.8200    13.9710    -0.1320 c          1 GG2       0.541600
     10 C12          1.3130    11.3920    -0.0740 cd         1 GG2      -0.102300
     11 C13          2.3630    10.5870    -0.4000 cc         1 GG2      -0.228600
     12 C14         -0.0860     5.0170     0.3520 ca         1 GG2      -0.091500
     13 C15          9.4990     9.7020    -1.7280 c3         1 GG2       0.146900
     14 C16          0.8420     4.4040     1.2210 ca         1 GG2      -0.050000
     15 C19          2.0240     2.1780     1.2290 c          1 GG2       0.569000
     16 C20         -0.4740     2.2970     1.4760 c6         1 GG2       0.118000
     17 C21         -0.4410     0.9750     2.2710 c6         1 GG2      -0.092400
     18 C22          2.0010     6.5560     1.3920 ca         1 GG2      -0.105500
     19 C24         -0.1130     9.3740     0.0790 c6         1 GG2       0.108000
     20 C4           4.5840    11.1600    -1.2760 ca         1 GG2      -0.047200
     21 C5           5.5360    10.7030    -0.3430 ca         1 GG2      -0.037000
     22 C6           6.8370    10.3700    -0.7620 ca         1 GG2      -0.170500
     23 N1           3.2970    11.4950    -0.8600 na         1 GG2       0.291000
     24 N5           1.1380     8.5740     0.2350 n          1 GG2      -0.236400
     25 C44         -0.0140     6.3930     0.0730 ca         1 GG2      -0.105500
     26 N2           0.8500     2.9670     1.3790 n          1 GG2      -0.252400
     27 C18          1.9290     5.1800     1.6710 ca         1 GG2      -0.091500
     28 C25          0.6440     0.0400     1.7090 c6         1 GG2      -0.074400
     29 C23          2.0180     0.7390     1.7800 c6         1 GG2      -0.158400
     30 O1          -0.3110    13.9700     0.3320 o          1 GG2      -0.611100
     31 N3           1.3880    15.1530    -0.4810 nt         1 GG2      -0.594000
     32 C17          0.0400    10.8470     0.5160 c6         1 GG2      -0.012100
     33 H2           6.5190    11.0550    -4.0950 ha         1 GG2       0.129500
     34 H3           4.2180    11.6470    -3.3570 ha         1 GG2       0.130500
     35 H14         -0.8670     4.4310    -0.1260 ha         1 GG2       0.122000
     36 H151         9.7320    10.4400    -0.9490 h1         1 GG2       0.044367
     37 H152        10.4140     9.5160    -2.3040 h1         1 GG2       0.044367
     38 H153         9.2040     8.7610    -1.2460 h1         1 GG2       0.044367
     39 H201        -0.8350     2.0920     0.4590 h1         1 GG2       0.042700
     40 H202        -1.1950     2.9780     1.9510 h1         1 GG2       0.042700
     41 H211        -1.4240     0.4870     2.2220 hc         1 GG2       0.053200
     42 H212        -0.2450     1.1850     3.3310 hc         1 GG2       0.053200
     43 H22          2.8440     7.1250     1.7750 ha         1 GG2       0.123500
     44 H241        -0.9260     8.9140     0.6600 h1         1 GG2       0.051700
     45 H242        -0.4080     9.3450    -0.9790 h1         1 GG2       0.051700
     46 H5           5.2650    10.6060     0.7060 ha         1 GG2       0.130500
     47 H6           7.5470    10.0180    -0.0200 ha         1 GG2       0.129500
     48 H44         -0.7400     6.8240    -0.6120 ha         1 GG2       0.123500
     49 H18          2.7200     4.7230     2.2610 ha         1 GG2       0.122000
     50 H251         0.4110    -0.2210     0.6670 hc         1 GG2       0.049700
     51 H252         0.6670    -0.9020     2.2750 hc         1 GG2       0.049700
     52 H231         2.8250     0.1530     1.3210 hc         1 GG2       0.072700
     53 H232         2.2610     0.8380     2.8460 hc         1 GG2       0.072700
     54 HN31         2.3230    15.1570    -0.8630 hn         1 GG2       0.324000
     55 HN32         0.8740    16.0120    -0.3560 hn         1 GG2       0.324000
     56 H171         0.0740    10.9070     1.6120 hc         1 GG2       0.077700
     57 H172        -0.8410    11.4140     0.1900 hc         1 GG2       0.077700
     58 O3           3.3690     8.4340    -0.4250 o          1 GG2      -0.525000
     59 O2           3.0380     2.6130     0.6950 o          1 GG2      -0.549000
@<TRIPOS>BOND
     1     1     2 ar  
     2     1     4 1   
     3     1    22 ar  
     4     2     3 ar  
     5     2    33 1   
     6     3    20 ar  
     7     3    34 1   
     8     4    13 1   
     9     5     8 2   
    10     5    23 1   
    11     6    18 ar  
    12     6    24 1   
    13     6    25 ar  
    14     7    11 1   
    15     7    24 1   
    16     7    58 2   
    17     8     9 1   
    18     8    10 1   
    19     9    30 2   
    20     9    31 1   
    21    10    11 2   
    22    10    32 1   
    23    11    23 1   
    24    12    14 ar  
    25    12    25 ar  
    26    12    35 1   
    27    13    36 1   
    28    13    37 1   
    29    13    38 1   
    30    14    26 1   
    31    14    27 ar  
    32    15    26 1   
    33    15    29 1   
    34    15    59 2   
    35    16    17 1   
    36    16    26 1   
    37    16    39 1   
    38    16    40 1   
    39    17    28 1   
    40    17    41 1   
    41    17    42 1   
    42    18    27 ar  
    43    18    43 1   
    44    19    24 1   
    45    19    32 1   
    46    19    44 1   
    47    19    45 1   
    48    20    21 ar  
    49    20    23 1   
    50    21    22 ar  
    51    21    46 1   
    52    22    47 1   
    53    25    48 1   
    54    27    49 1   
    55    28    29 1   
    56    28    50 1   
    57    28    51 1   
    58    29    52 1   
    59    29    53 1   
    60    31    54 1   
    61    31    55 1   
    62    32    56 1   
    63    32    57 1   
@<TRIPOS>SUBSTRUCTURE
     1 GG2         1 TEMP              0 ****  ****    0 ROOT
