@<TRIPOS>MOLECULE
GG3
   45    45     1     0     0
SMALL
abcg2


@<TRIPOS>ATOM
      1 C2           0.4770    -1.8880    -1.0290 c3         1 GG3       0.117800
      2 C6           2.5620    -2.8320    -1.7900 c3         1 GG3       0.197800
      3 C7          -0.2060    -0.7290    -0.3130 c3         1 GG3      -0.001400
      4 C8          -1.3890    -1.0830     0.6060 c3         1 GG3      -0.456000
      5 O16          0.4790    -1.7030     2.4620 o          1 GG3      -0.958333
      6 P14         -0.8730    -2.2690     1.9630 p5         1 GG3       1.355000
      7 O17         -0.7560    -3.6680     1.3290 o          1 GG3      -0.958333
      8 O15         -1.9420    -2.2010     3.0650 o          1 GG3      -0.958333
      9 P9          -2.9140    -1.5520    -0.3950 p5         1 GG3       1.355000
     10 O11         -3.8520    -2.4310     0.4340 o          1 GG3      -0.958333
     11 O10         -2.4940    -2.2010    -1.7210 o          1 GG3      -0.958333
     12 O12         -3.5040    -0.1160    -0.6060 o          1 GG3      -0.958333
     13 O13         -1.7720     0.1510     1.2470 oh         1 GG3      -0.731000
     14 N13          1.8900    -1.6430    -1.3000 n3         1 GG3      -0.699600
     15 C21          2.0820    -0.5520    -2.2230 c3         1 GG3       0.178100
     16 C22          2.4650    -4.0340    -0.8580 c3         1 GG3      -0.063400
     17 C26          2.8610    -3.7490     0.5850 c3         1 GG3      -0.065400
     18 C27          2.5570    -4.9470     1.4860 c3         1 GG3      -0.050100
     19 C28          3.0550    -4.7740     2.8930 ca         1 GG3      -0.041300
     20 C33          4.0730    -5.5770     3.4010 ca         1 GG3      -0.099500
     21 C32          4.5390    -5.4090     4.7000 ca         1 GG3      -0.150000
     22 C31          3.9880    -4.4270     5.5120 ca         1 GG3      -0.170000
     23 C30          2.9740    -3.6160     5.0110 ca         1 GG3      -0.150000
     24 C29          2.5080    -3.7830     3.7130 ca         1 GG3      -0.099500
     25 H21          0.4000    -2.7560    -0.3800 h1         1 GG3       0.085700
     26 H22         -0.0670    -2.1310    -1.9540 h1         1 GG3       0.085700
     27 H61          2.1790    -3.1310    -2.7860 h1         1 GG3      -0.035800
     28 H62          3.6180    -2.5810    -1.9400 h1         1 GG3      -0.035800
     29 H71         -0.5360     0.0290    -1.0360 hc         1 GG3      -0.018300
     30 H72          0.5460    -0.2520     0.3240 hc         1 GG3      -0.018300
     31 HO13        -2.5010     0.4390     0.6450 ho         1 GG3       0.437000
     32 H211         1.6400     0.3650    -1.8340 h1         1 GG3      -0.011300
     33 H212         1.6380    -0.7390    -3.2170 h1         1 GG3      -0.011300
     34 H213         3.1480    -0.3630    -2.3740 h1         1 GG3      -0.011300
     35 H221         3.0990    -4.8270    -1.2680 hc         1 GG3       0.026700
     36 H222         1.4470    -4.4330    -0.8670 hc         1 GG3       0.026700
     37 H261         3.9250    -3.4940     0.6360 hc         1 GG3       0.068200
     38 H262         2.2960    -2.8940     0.9610 hc         1 GG3       0.068200
     39 H271         1.4700    -5.0610     1.4930 hc         1 GG3       0.061200
     40 H272         2.9870    -5.8600     1.0600 hc         1 GG3       0.061200
     41 H33          4.5080    -6.3440     2.7690 ha         1 GG3       0.167500
     42 H32          5.3320    -6.0440     5.0770 ha         1 GG3       0.078500
     43 H31          4.3450    -4.2930     6.5260 ha         1 GG3       0.054000
     44 H30          2.5420    -2.8480     5.6410 ha         1 GG3       0.078500
     45 H29          1.7250    -3.1340     3.3130 ha         1 GG3       0.167500
@<TRIPOS>BOND
     1     1     3 1   
     2     1    14 1   
     3     1    25 1   
     4     1    26 1   
     5     2    14 1   
     6     2    16 1   
     7     2    27 1   
     8     2    28 1   
     9     3     4 1   
    10     3    29 1   
    11     3    30 1   
    12     4     6 1   
    13     4     9 1   
    14     4    13 1   
    15     5     6 1   
    16     6     7 1   
    17     6     8 1   
    18     9    10 1   
    19     9    11 1   
    20     9    12 1   
    21    13    31 1   
    22    14    15 1   
    23    15    32 1   
    24    15    33 1   
    25    15    34 1   
    26    16    17 1   
    27    16    35 1   
    28    16    36 1   
    29    17    18 1   
    30    17    37 1   
    31    17    38 1   
    32    18    19 1   
    33    18    39 1   
    34    18    40 1   
    35    19    20 ar  
    36    19    24 ar  
    37    20    21 ar  
    38    20    41 1   
    39    21    22 ar  
    40    21    42 1   
    41    22    23 ar  
    42    22    43 1   
    43    23    24 ar  
    44    23    44 1   
    45    24    45 1   
@<TRIPOS>SUBSTRUCTURE
     1 GG3         1 TEMP              0 ****  ****    0 ROOT
