@<TRIPOS>MOLECULE
GG3
   45    45     1     0     0
SMALL
No Charge or Current Charge


@<TRIPOS>ATOM
      1 C2           0.2100    -1.9300    -0.7290 c3         1 GG3       0.117800
      2 C6           2.2460    -3.1580    -1.4780 c3         1 GG3       0.197800
      3 C7          -0.4080    -0.6580    -0.0530 c3         1 GG3      -0.001400
      4 C8          -1.9440    -0.6390     0.3030 c3         1 GG3      -0.456000
      5 O16         -1.5630    -2.6620     2.0790 o          1 GG3      -0.958333
      6 P14         -2.5390    -2.2720     1.0150 p5         1 GG3       1.355000
      7 O17         -2.6130    -3.3840     0.0220 o          1 GG3      -0.958333
      8 O15         -3.8540    -2.1090     1.7110 o          1 GG3      -0.958333
      9 P9          -3.0110    -0.5280    -1.2370 p5         1 GG3       1.355000
     10 O11         -4.4590    -0.8100    -1.0100 o          1 GG3      -0.958333
     11 O10         -2.4950    -1.3310    -2.3840 o          1 GG3      -0.958333
     12 O12         -2.9080     0.9120    -1.6340 o          1 GG3      -0.958333
     13 O13         -2.1390     0.5710     1.1610 oh         1 GG3      -0.731000
     14 N13          1.6840    -1.8670    -1.0080 n3         1 GG3      -0.699600
     15 C21          2.0540    -0.7650    -1.9240 c3         1 GG3       0.178100
     16 C22          2.2020    -4.3340    -0.4690 c3         1 GG3      -0.063400
     17 C26          2.9470    -4.0470     0.8560 c3         1 GG3      -0.065400
     18 C27          2.9470    -5.2480     1.8270 c3         1 GG3      -0.050100
     19 C28          3.7150    -4.9510     3.1090 ca         1 GG3      -0.041300
     20 C33          5.0690    -5.3220     3.2300 ca         1 GG3      -0.099500
     21 C32          5.7760    -5.0440     4.4140 ca         1 GG3      -0.150000
     22 C31          5.1350    -4.3940     5.4800 ca         1 GG3      -0.170000
     23 C30          3.7870    -4.0200     5.3650 ca         1 GG3      -0.150000
     24 C29          3.0780    -4.2970     4.1820 ca         1 GG3      -0.099500
     25 H21          0.0120    -2.7750    -0.0600 h1         1 GG3       0.085700
     26 H22         -0.3210    -2.1440    -1.6620 h1         1 GG3       0.085700
     27 H61          1.7220    -3.4680    -2.3930 h1         1 GG3      -0.035800
     28 H62          3.2990    -3.0100    -1.7510 h1         1 GG3      -0.035800
     29 H71         -0.2120     0.2140    -0.6880 hc         1 GG3      -0.018300
     30 H72          0.1620    -0.4860     0.8700 hc         1 GG3      -0.018300
     31 HO13        -2.4910     1.2670     0.5530 ho         1 GG3       0.437000
     32 H211         1.8160     0.2120    -1.4880 h1         1 GG3      -0.011300
     33 H212         1.5270    -0.8630    -2.8820 h1         1 GG3      -0.011300
     34 H213         3.1340    -0.7770    -2.1230 h1         1 GG3      -0.011300
     35 H221         2.6620    -5.2070    -0.9480 hc         1 GG3       0.026700
     36 H222         1.1640    -4.6150    -0.2580 hc         1 GG3       0.026700
     37 H261         3.9830    -3.7650     0.6330 hc         1 GG3       0.068200
     38 H262         2.4840    -3.1850     1.3540 hc         1 GG3       0.068200
     39 H271         1.9110    -5.5190     2.0640 hc         1 GG3       0.061200
     40 H272         3.3800    -6.1200     1.3210 hc         1 GG3       0.061200
     41 H33          5.5740    -5.8240     2.4060 ha         1 GG3       0.167500
     42 H32          6.8210    -5.3330     4.5020 ha         1 GG3       0.078500
     43 H31          5.6830    -4.1800     6.3950 ha         1 GG3       0.054000
     44 H30          3.2900    -3.5150     6.1900 ha         1 GG3       0.078500
     45 H29          2.0330    -4.0020     4.0980 ha         1 GG3       0.167500
@<TRIPOS>BOND
     1     1     3 1   
     2     1    14 1   
     3     1    25 1   
     4     1    26 1   
     5     2    14 1   
     6     2    16 1   
     7     2    27 1   
     8     2    28 1   
     9     3     4 1   
    10     3    29 1   
    11     3    30 1   
    12     4     6 1   
    13     4     9 1   
    14     4    13 1   
    15     5     6 1   
    16     6     7 1   
    17     6     8 1   
    18     9    10 1   
    19     9    11 1   
    20     9    12 1   
    21    13    31 1   
    22    14    15 1   
    23    15    32 1   
    24    15    33 1   
    25    15    34 1   
    26    16    17 1   
    27    16    35 1   
    28    16    36 1   
    29    17    18 1   
    30    17    37 1   
    31    17    38 1   
    32    18    19 1   
    33    18    39 1   
    34    18    40 1   
    35    19    20 ar  
    36    19    24 ar  
    37    20    21 ar  
    38    20    41 1   
    39    21    22 ar  
    40    21    42 1   
    41    22    23 ar  
    42    22    43 1   
    43    23    24 ar  
    44    23    44 1   
    45    24    45 1   
@<TRIPOS>SUBSTRUCTURE
     1 GG3         1 TEMP              0 ****  ****    0 ROOT
