@<TRIPOS>MOLECULE
GG5
   28    30     1     0     0
SMALL
abcg2


@<TRIPOS>ATOM
      1 C1           0.5070     3.6400    -2.7270 ca         1 GG5       0.335400
      2 N2          -0.3050     3.8210    -1.6900 nb         1 GG5      -0.666000
      3 C3          -0.4770     2.7830    -0.8800 ca         1 GG5       0.335400
      4 C4           0.1290     1.5500    -1.0590 ca         1 GG5      -0.164500
      5 C5           0.9840     1.3570    -2.1440 ca         1 GG5       0.055000
      6 C6           1.1670     2.4540    -2.9910 ca         1 GG5      -0.164500
      7 C7           1.6620     0.0920    -2.4130 cc         1 GG5      -0.153000
      8 C8           2.1420    -0.3180    -3.6440 cd         1 GG5      -0.152000
      9 N9           2.7190    -1.5060    -3.4530 na         1 GG5       0.005800
     10 N11          2.6590    -1.9220    -2.1950 nd         1 GG5      -0.505800
     11 C12          2.0200    -0.9700    -1.5410 cc         1 GG5       0.320500
     12 C13          1.8040    -1.1020    -0.0860 ca         1 GG5      -0.134500
     13 C14          0.5950    -1.5790     0.4150 ca         1 GG5      -0.063500
     14 C15          0.3900    -1.7150     1.7790 ca         1 GG5      -0.156000
     15 C16          1.4210    -1.3770     2.6360 ca         1 GG5       0.177000
     16 C17          2.6350    -0.9060     2.1760 ca         1 GG5      -0.156000
     17 C18          2.8190    -0.7720     0.8080 ca         1 GG5      -0.063500
     18 F19          1.2350    -1.5100     3.9580 f          1 GG5      -0.178000
     19 H1           0.6520     4.4910    -3.3840 h4         1 GG5       0.017100
     20 H3          -1.1400     2.9310    -0.0350 h4         1 GG5       0.017100
     21 H4          -0.0780     0.7590    -0.3540 ha         1 GG5       0.122000
     22 H6           1.8310     2.3990    -3.8430 ha         1 GG5       0.122000
     23 H8           2.1080     0.1480    -4.6160 h4         1 GG5       0.159000
     24 HN9          3.1330    -2.0980    -4.1560 hn         1 GG5       0.377000
     25 H14         -0.2030    -1.8440    -0.2680 ha         1 GG5       0.123000
     26 H15         -0.5510    -2.0830     2.1670 ha         1 GG5       0.134000
     27 H17          3.4230    -0.6470     2.8720 ha         1 GG5       0.134000
     28 H18          3.7640    -0.4020     0.4340 ha         1 GG5       0.123000
@<TRIPOS>BOND
     1     1     2 ar  
     2     1     6 ar  
     3     1    19 1   
     4     2     3 ar  
     5     3     4 ar  
     6     3    20 1   
     7     4     5 ar  
     8     4    21 1   
     9     5     6 ar  
    10     5     7 1   
    11     6    22 1   
    12     7     8 2   
    13     7    11 1   
    14     8     9 1   
    15     8    23 1   
    16     9    10 1   
    17     9    24 1   
    18    10    11 2   
    19    11    12 1   
    20    12    13 ar  
    21    12    17 ar  
    22    13    14 ar  
    23    13    25 1   
    24    14    15 ar  
    25    14    26 1   
    26    15    16 ar  
    27    15    18 1   
    28    16    17 ar  
    29    16    27 1   
    30    17    28 1   
@<TRIPOS>SUBSTRUCTURE
     1 GG5         1 TEMP              0 ****  ****    0 ROOT
