@<TRIPOS>MOLECULE
GG5
   28    30     1     0     0
SMALL
No Charge or Current Charge


@<TRIPOS>ATOM
      1 C1           1.2610     3.8270    -2.6090 ca         1 GG5       0.335400
      2 N2           0.3680     4.1200    -1.6380 nb         1 GG5      -0.666000
      3 C3          -0.1190     3.0930    -0.9060 ca         1 GG5       0.335400
      4 C4           0.2670     1.7590    -1.1080 ca         1 GG5      -0.164500
      5 C5           1.2110     1.4480    -2.1050 ca         1 GG5       0.055000
      6 C6           1.6970     2.5200    -2.8790 ca         1 GG5      -0.164500
      7 C7           1.6270     0.0640    -2.3760 cc         1 GG5      -0.153000
      8 C8           1.8730    -0.3160    -3.6640 cd         1 GG5      -0.152000
      9 N9           2.0060    -1.7050    -3.6060 na         1 GG5       0.005800
     10 N11          1.8300    -2.2020    -2.3180 nd         1 GG5      -0.505800
     11 C12          1.5910    -1.1210    -1.5930 cc         1 GG5       0.320500
     12 C13          1.4960    -1.2130    -0.1230 ca         1 GG5      -0.134500
     13 C14          1.1200    -2.4340     0.4880 ca         1 GG5      -0.063500
     14 C15          1.0730    -2.5530     1.8890 ca         1 GG5      -0.156000
     15 C16          1.4310    -1.4650     2.6960 ca         1 GG5       0.177000
     16 C17          1.8530    -0.2640     2.1100 ca         1 GG5      -0.156000
     17 C18          1.8990    -0.1430     0.7100 ca         1 GG5      -0.063500
     18 F19          1.3910    -1.5820     4.0410 f          1 GG5      -0.178000
     19 H1           1.6380     4.6670    -3.1910 h4         1 GG5       0.017100
     20 H3          -0.8500     3.3480    -0.1400 h4         1 GG5       0.017100
     21 H4          -0.1930     0.9800    -0.5080 ha         1 GG5       0.122000
     22 H6           2.4230     2.3570    -3.6700 ha         1 GG5       0.122000
     23 H8           1.9130     0.2450    -4.5910 h4         1 GG5       0.159000
     24 HN9          2.1960    -2.3250    -4.3940 hn         1 GG5       0.377000
     25 H14          0.8420    -3.2910    -0.1210 ha         1 GG5       0.123000
     26 H15          0.7640    -3.4880     2.3480 ha         1 GG5       0.134000
     27 H17          2.1570     0.5670     2.7410 ha         1 GG5       0.134000
     28 H18          2.2800     0.7800     0.2810 ha         1 GG5       0.123000
@<TRIPOS>BOND
     1     1     2 ar  
     2     1     6 ar  
     3     1    19 1   
     4     2     3 ar  
     5     3     4 ar  
     6     3    20 1   
     7     4     5 ar  
     8     4    21 1   
     9     5     6 ar  
    10     5     7 1   
    11     6    22 1   
    12     7     8 2   
    13     7    11 1   
    14     8     9 1   
    15     8    23 1   
    16     9    10 1   
    17     9    24 1   
    18    10    11 2   
    19    11    12 1   
    20    12    13 ar  
    21    12    17 ar  
    22    13    14 ar  
    23    13    25 1   
    24    14    15 ar  
    25    14    26 1   
    26    15    16 ar  
    27    15    18 1   
    28    16    17 ar  
    29    16    27 1   
    30    17    28 1   
@<TRIPOS>SUBSTRUCTURE
     1 GG5         1 TEMP              0 ****  ****    0 ROOT
