@<TRIPOS>MOLECULE
GG6
   16    15     1     0     0
SMALL
No Charge or Current Charge


@<TRIPOS>ATOM
      1 O1          -0.5610     0.6410     1.6500 oh         1 GG6      -0.789000
      2 C2           0.7170     0.0860     1.9640 c3         1 GG6       0.221300
      3 C3           1.5730    -0.0320     0.6780 c3         1 GG6      -0.072100
      4 C1           1.3800     0.9230     3.0980 c3         1 GG6      -0.210700
      5 O2           1.7100     2.2890     2.6690 oh         1 GG6      -0.727000
      6 P            0.2890     0.8040     4.6410 p5         1 GG6       1.284500
      7 O3          -1.1240     0.9550     4.1800 o          1 GG6      -0.893833
      8 O4           0.4970    -0.5110     5.3100 o          1 GG6      -0.893833
      9 O5           0.6620     1.9270     5.5500 o          1 GG6      -0.893833
     10 HO1         -0.9400     0.8400     2.5630 ho         1 GG6       0.532000
     11 H2           0.5730    -0.9310     2.3490 h1         1 GG6      -0.017300
     12 H31          2.5570    -0.4570     0.9110 hc         1 GG6      -0.001967
     13 H32          1.0870    -0.6930    -0.0490 hc         1 GG6      -0.001967
     14 H33          1.7250     0.9450     0.2020 hc         1 GG6      -0.001967
     15 H1           2.3120     0.4160     3.3810 h1         1 GG6      -0.004300
     16 HO2          1.6290     2.8620     3.4710 ho         1 GG6       0.470000
@<TRIPOS>BOND
     1     1     2 1   
     2     1    10 1   
     3     2     3 1   
     4     2     4 1   
     5     2    11 1   
     6     3    12 1   
     7     3    13 1   
     8     3    14 1   
     9     4     5 1   
    10     4     6 1   
    11     4    15 1   
    12     5    16 1   
    13     6     7 1   
    14     6     8 1   
    15     6     9 1   
@<TRIPOS>SUBSTRUCTURE
     1 GG6         1 TEMP              0 ****  ****    0 ROOT
