@<TRIPOS>MOLECULE
GG6
   16    15     1     0     0
SMALL
abcg2


@<TRIPOS>ATOM
      1 O1          -0.5570     0.6060     1.6510 oh         1 GG6      -0.789000
      2 C2           0.7050     0.0610     1.9490 c3         1 GG6       0.221300
      3 C3           1.5520     0.0770     0.6860 c3         1 GG6      -0.072100
      4 C1           1.3880     0.7700     3.1200 c3         1 GG6      -0.210700
      5 O2           1.7660     2.0930     2.7750 oh         1 GG6      -0.727000
      6 P            0.2990     0.8800     4.6550 p5         1 GG6       1.284500
      7 O3          -1.1570     0.8480     4.1180 o          1 GG6      -0.893833
      8 O4           0.6280    -0.2900     5.5720 o          1 GG6      -0.893833
      9 O5           0.7040     2.2710     5.1850 o          1 GG6      -0.893833
     10 HO1         -0.9720     0.7450     2.5530 ho         1 GG6       0.532000
     11 H2           0.6110    -0.9940     2.2670 h1         1 GG6      -0.017300
     12 H31          2.5240    -0.3840     0.8680 hc         1 GG6      -0.001967
     13 H32          1.0680    -0.4810    -0.1190 hc         1 GG6      -0.001967
     14 H33          1.7220     1.0950     0.3360 hc         1 GG6      -0.001967
     15 H1           2.2820     0.1740     3.3710 h1         1 GG6      -0.004300
     16 HO2          1.5230     2.5930     3.5810 ho         1 GG6       0.470000
@<TRIPOS>BOND
     1     1     2 1   
     2     1    10 1   
     3     2     3 1   
     4     2     4 1   
     5     2    11 1   
     6     3    12 1   
     7     3    13 1   
     8     3    14 1   
     9     4     5 1   
    10     4     6 1   
    11     4    15 1   
    12     5    16 1   
    13     6     7 1   
    14     6     8 1   
    15     6     9 1   
@<TRIPOS>SUBSTRUCTURE
     1 GG6         1 TEMP              0 ****  ****    0 ROOT
