@<TRIPOS>MOLECULE
GG7
   13    12     1     0     0
SMALL
bcc


@<TRIPOS>ATOM
      1 O1A         -3.2450    -0.9230     2.7300 o          1 GG7      -0.934833
      2 P           -3.1790    -1.7060     1.4060 p5         1 GG7       1.146700
      3 O1B         -4.5360    -1.8340     0.7020 o          1 GG7      -0.934833
      4 CA          -2.1110    -0.6310     0.3090 c3         1 GG7      -0.002700
      5 CB          -0.6600    -0.6400     0.7800 c3         1 GG7      -0.069100
      6 N           -2.6780     0.7190     0.2530 n8         1 GG7      -0.850800
      7 O1C         -2.4220    -3.0390     1.5150 o          1 GG7      -0.934833
      8 HA          -2.1370    -1.0470    -0.7080 h1         1 GG7       0.021700
      9 HB1         -0.5960    -0.3000     1.8170 hc         1 GG7      -0.006300
     10 HB2         -0.0310     0.0190     0.1740 hc         1 GG7      -0.006300
     11 HB3         -0.2340    -1.6430     0.7370 hc         1 GG7      -0.006300
     12 HN1         -2.8700     1.0030     1.2070 hn         1 GG7       0.288300
     13 HN2         -1.9780     1.3680    -0.0900 hn         1 GG7       0.288300
@<TRIPOS>BOND
     1     1     2 1   
     2     2     3 1   
     3     2     4 1   
     4     2     7 1   
     5     4     5 1   
     6     4     6 1   
     7     4     8 1   
     8     5     9 1   
     9     5    10 1   
    10     5    11 1   
    11     6    12 1   
    12     6    13 1   
@<TRIPOS>SUBSTRUCTURE
     1 GG7         1 TEMP              0 ****  ****    0 ROOT
