@<TRIPOS>MOLECULE
GG7
   13    12     1     0     0
SMALL
No Charge or Current Charge


@<TRIPOS>ATOM
      1 O1A         -3.2660    -1.3430     2.8350 o          1 GG7      -0.934833
      2 P           -3.1940    -1.8310     1.4240 p5         1 GG7       1.304500
      3 O1B         -4.5740    -1.9200     0.8570 o          1 GG7      -0.934833
      4 CA          -2.1590    -0.5860     0.3740 c3         1 GG7      -0.160500
      5 CB          -0.6810    -0.5690     0.8330 c3         1 GG7      -0.069100
      6 N           -2.6030     0.8470     0.1520 n8         1 GG7      -0.961200
      7 O1C         -2.5540    -3.1790     1.3840 o          1 GG7      -0.934833
      8 HA          -2.1650    -1.0530    -0.6200 h1         1 GG7       0.021700
      9 HB1         -0.5900    -0.1700     1.8510 hc         1 GG7      -0.006300
     10 HB2         -0.0680     0.0500     0.1650 hc         1 GG7      -0.006300
     11 HB3         -0.2590    -1.5810     0.8230 hc         1 GG7      -0.006300
     12 HN1         -2.7130     1.3100     1.0620 hn         1 GG7       0.343500
     13 HN2         -1.8510     1.3720    -0.3090 hn         1 GG7       0.343500
@<TRIPOS>BOND
     1     1     2 1   
     2     2     3 1   
     3     2     4 1   
     4     2     7 1   
     5     4     5 1   
     6     4     6 1   
     7     4     8 1   
     8     5     9 1   
     9     5    10 1   
    10     5    11 1   
    11     6    12 1   
    12     6    13 1   
@<TRIPOS>SUBSTRUCTURE
     1 GG7         1 TEMP              0 ****  ****    0 ROOT
