@<TRIPOS>MOLECULE
GG8
   26    26     1     0     0
SMALL
No Charge or Current Charge


@<TRIPOS>ATOM
      1 C4          -2.1040    -0.0600     0.1790 ca         1 GG8      -0.314500
      2 C5          -2.1990     0.4980     1.4710 ca         1 GG8      -0.017000
      3 C6          -2.6710     1.8120     1.6350 ca         1 GG8      -0.128000
      4 C7          -3.0480     2.5730     0.5150 ca         1 GG8      -0.053000
      5 C8          -2.9520     2.0190    -0.7730 ca         1 GG8      -0.128000
      6 C9          -2.4810     0.7050    -0.9450 ca         1 GG8      -0.017000
      7 N1           0.1600    -1.5160     0.1640 n7         1 GG8      -0.867300
      8 C3           0.7870    -0.3720    -0.5170 c3         1 GG8       0.204800
      9 F1           2.6520     1.9390    -0.4250 f          1 GG8      -0.115333
     10 C1           3.0680     0.7560    -0.9320 c3         1 GG8       0.301000
     11 F2           2.8830     0.7840    -2.2710 f          1 GG8      -0.115333
     12 F3           4.3950     0.6490    -0.6990 f          1 GG8      -0.115333
     13 C2           2.3080    -0.4230    -0.2910 c3         1 GG8      -0.156400
     14 S1          -1.4830    -1.7390    -0.0260 sy         1 GG8       1.150600
     15 O1          -1.8960    -2.5440     1.1260 o          1 GG8      -0.527500
     16 O2          -1.6650    -2.1840    -1.4090 o          1 GG8      -0.527500
     17 H1          -1.9040    -0.0790     2.3460 ha         1 GG8       0.135500
     18 H2          -2.7430     2.2420     2.6310 ha         1 GG8       0.121500
     19 H3          -3.4120     3.5900     0.6440 ha         1 GG8       0.119000
     20 H4          -3.2420     2.6080    -1.6400 ha         1 GG8       0.121500
     21 H5          -2.4100     0.2910    -1.9500 ha         1 GG8       0.135500
     22 H6           0.5100    -2.3820    -0.2420 hn         1 GG8       0.479000
     23 H7           0.5760    -0.3900    -1.5960 h1         1 GG8       0.067700
     24 H8           0.4050     0.5790    -0.1180 h1         1 GG8       0.067700
     25 H9           2.5100    -0.4270     0.7870 hc         1 GG8       0.089700
     26 H10          2.7070    -1.3600    -0.6960 hc         1 GG8       0.089700
@<TRIPOS>BOND
     1     1     2 ar  
     2     1     6 ar  
     3     1    14 1   
     4     2     3 ar  
     5     2    17 1   
     6     3     4 ar  
     7     3    18 1   
     8     4     5 ar  
     9     4    19 1   
    10     5     6 ar  
    11     5    20 1   
    12     6    21 1   
    13     7     8 1   
    14     7    14 1   
    15     7    22 1   
    16     8    13 1   
    17     8    23 1   
    18     8    24 1   
    19     9    10 1   
    20    10    11 1   
    21    10    12 1   
    22    10    13 1   
    23    13    25 1   
    24    13    26 1   
    25    14    15 2   
    26    14    16 2   
@<TRIPOS>SUBSTRUCTURE
     1 GG8         1 TEMP              0 ****  ****    0 ROOT
