@<TRIPOS>MOLECULE
GG8
   26    26     1     0     0
SMALL
abcg2


@<TRIPOS>ATOM
      1 C4          -2.1840     0.0050     0.1410 ca         1 GG8      -0.314500
      2 C5          -2.1120     0.9400     1.1670 ca         1 GG8      -0.017000
      3 C6          -2.7920     2.1410     1.0300 ca         1 GG8      -0.128000
      4 C7          -3.5330     2.3970    -0.1160 ca         1 GG8      -0.053000
      5 C8          -3.5990     1.4530    -1.1330 ca         1 GG8      -0.128000
      6 C9          -2.9230     0.2490    -1.0110 ca         1 GG8      -0.017000
      7 N1           0.1540    -1.2830    -0.5060 n7         1 GG8      -0.867300
      8 C3           1.0750    -0.2670    -0.0100 c3         1 GG8       0.204800
      9 F1           3.6800     0.4370     1.1110 f          1 GG8      -0.115333
     10 C1           3.4730     0.4850    -0.2140 c3         1 GG8       0.301000
     11 F2           3.1390     1.7530    -0.5010 f          1 GG8      -0.115333
     12 F3           4.6560     0.2550    -0.8000 f          1 GG8      -0.115333
     13 C2           2.4310    -0.5010    -0.6650 c3         1 GG8      -0.156400
     14 S1          -1.2790    -1.5130     0.2750 sy         1 GG8       1.150600
     15 O1          -0.9680    -1.7260     1.6780 o          1 GG8      -0.527500
     16 O2          -1.9820    -2.5350    -0.4800 o          1 GG8      -0.527500
     17 H1          -1.5440     0.7380     2.0650 ha         1 GG8       0.135500
     18 H2          -2.7450     2.8740     1.8240 ha         1 GG8       0.121500
     19 H3          -4.0640     3.3350    -0.2150 ha         1 GG8       0.119000
     20 H4          -4.1810     1.6520    -2.0220 ha         1 GG8       0.121500
     21 H5          -2.9830    -0.4860    -1.8020 ha         1 GG8       0.135500
     22 H6           0.0290    -1.2660    -1.5140 hn         1 GG8       0.479000
     23 H7           0.7130     0.7430    -0.2210 h1         1 GG8       0.067700
     24 H8           1.1590    -0.3790     1.0700 h1         1 GG8       0.067700
     25 H9           2.7850    -1.5070    -0.4340 hc         1 GG8       0.089700
     26 H10          2.3440    -0.4240    -1.7520 hc         1 GG8       0.089700
@<TRIPOS>BOND
     1     1     2 ar  
     2     1     6 ar  
     3     1    14 1   
     4     2     3 ar  
     5     2    17 1   
     6     3     4 ar  
     7     3    18 1   
     8     4     5 ar  
     9     4    19 1   
    10     5     6 ar  
    11     5    20 1   
    12     6    21 1   
    13     7     8 1   
    14     7    14 1   
    15     7    22 1   
    16     8    13 1   
    17     8    23 1   
    18     8    24 1   
    19     9    10 1   
    20    10    11 1   
    21    10    12 1   
    22    10    13 1   
    23    13    25 1   
    24    13    26 1   
    25    14    15 2   
    26    14    16 2   
@<TRIPOS>SUBSTRUCTURE
     1 GG8         1 TEMP              0 ****  ****    0 ROOT
