@<TRIPOS>MOLECULE
GGB
   23    22     1     0     0
SMALL
abcg2


@<TRIPOS>ATOM
      1 N            1.5200    -1.0370     2.0910 n8         1 GGB      -0.990200
      2 CA           0.6550     0.1310     2.1200 c3         1 GGB       0.023500
      3 CB          -0.2890     0.2710     0.9120 c3         1 GGB      -0.107400
      4 CG           0.4620     0.4800    -0.3870 c3         1 GGB       0.148600
      5 C           -0.2040     0.1390     3.4050 c          1 GGB       0.726000
      6 OD          -0.4940     0.6260    -1.4260 os         1 GGB      -0.217300
      7 NE           0.1290     0.9080    -2.6200 nu         1 GGB      -0.638900
      8 CZ           0.1240    -0.1370    -3.5410 c2         1 GGB       0.747100
      9 NH1         -0.1000    -1.3350    -3.1670 n2         1 GGB      -0.827100
     10 NH2          0.5050     0.2830    -4.7920 nv         1 GGB      -1.079200
     11 OA1         -0.4300    -0.9610     3.9450 o          1 GGB      -0.730500
     12 OA2         -0.6340     1.2510     3.7710 o          1 GGB      -0.730500
     13 HN1A         1.9560    -1.1390     1.1830 hn         1 GGB       0.378000
     14 HN2          0.9520    -1.8630     2.2360 hn         1 GGB       0.378000
     15 HCA          1.2940     1.0230     2.1420 h1         1 GGB       0.041700
     16 HCB1        -0.9190    -0.6230     0.8420 hc         1 GGB       0.056200
     17 HCB2        -0.9530     1.1240     1.0760 hc         1 GGB       0.056200
     18 HCG1         1.0880     1.3780    -0.3180 h1         1 GGB       0.028700
     19 HCG2         1.1190    -0.3690    -0.6060 h1         1 GGB       0.028700
     20 HNE         -0.2310     1.7860    -2.9740 hn         1 GGB       0.447000
     21 HN1          0.0140    -1.9730    -3.9460 hn         1 GGB       0.365400
     22 HN21         0.2610    -0.3330    -5.5500 hn         1 GGB       0.449000
     23 HN22         0.3720     1.2550    -5.0270 hn         1 GGB       0.449000
@<TRIPOS>BOND
     1     1     2 1   
     2     1    13 1   
     3     1    14 1   
     4     2     3 1   
     5     2     5 1   
     6     2    15 1   
     7     3     4 1   
     8     3    16 1   
     9     3    17 1   
    10     4     6 1   
    11     4    18 1   
    12     4    19 1   
    13     5    11 1   
    14     5    12 1   
    15     6     7 1   
    16     7     8 1   
    17     7    20 1   
    18     8     9 2   
    19     8    10 1   
    20     9    21 1   
    21    10    22 1   
    22    10    23 1   
@<TRIPOS>SUBSTRUCTURE
     1 GGB         1 TEMP              0 ****  ****    0 ROOT
