@<TRIPOS>MOLECULE
GGB
   23    22     1     0     0
SMALL
No Charge or Current Charge


@<TRIPOS>ATOM
      1 N            2.1050     0.0540     2.0710 n8         1 GGB      -0.990200
      2 CA           0.6670     0.5110     2.1170 c3         1 GGB       0.023500
      3 CB          -0.1030    -0.0050     0.8730 c3         1 GGB      -0.107400
      4 CG           0.3870     0.5830    -0.4670 c3         1 GGB       0.148600
      5 C           -0.1330     0.1830     3.4490 c          1 GGB       0.726000
      6 OD          -0.4680     0.0750    -1.5070 os         1 GGB      -0.217300
      7 NE          -0.0810     0.5760    -2.8020 nu         1 GGB      -0.638900
      8 CZ          -0.4350    -0.1840    -3.8610 c2         1 GGB       0.747100
      9 NH1         -0.8490     0.3240    -4.9220 n2         1 GGB      -0.827100
     10 NH2          0.1180    -1.3790    -3.7510 nv         1 GGB      -1.079200
     11 OA1         -0.2510    -0.9890     3.7880 o          1 GGB      -0.730500
     12 OA2         -0.5510     1.1170     4.1210 o          1 GGB      -0.730500
     13 HN1A         2.4800     0.1870     1.1250 hn         1 GGB       0.378000
     14 HN2          2.1330    -0.9630     2.2120 hn         1 GGB       0.378000
     15 HCA          0.6860     1.6080     2.0440 h1         1 GGB       0.041700
     16 HCB1        -0.0520    -1.1000     0.8340 hc         1 GGB       0.056200
     17 HCB2        -1.1620     0.2550     0.9910 hc         1 GGB       0.056200
     18 HCG1         0.3360     1.6800    -0.4270 h1         1 GGB       0.028700
     19 HCG2         1.4290     0.2890    -0.6480 h1         1 GGB       0.028700
     20 HNE         -0.4670     1.5110    -2.9120 hn         1 GGB       0.447000
     21 HN1         -0.8940    -0.4290    -5.6180 hn         1 GGB       0.365400
     22 HN21         0.7620    -1.5700    -4.5060 hn         1 GGB       0.449000
     23 HN22         0.5400    -1.4480    -2.8350 hn         1 GGB       0.449000
@<TRIPOS>BOND
     1     1     2 1   
     2     1    13 1   
     3     1    14 1   
     4     2     3 1   
     5     2     5 1   
     6     2    15 1   
     7     3     4 1   
     8     3    16 1   
     9     3    17 1   
    10     4     6 1   
    11     4    18 1   
    12     4    19 1   
    13     5    11 1   
    14     5    12 1   
    15     6     7 1   
    16     7     8 1   
    17     7    20 1   
    18     8     9 2   
    19     8    10 1   
    20     9    21 1   
    21    10    22 1   
    22    10    23 1   
@<TRIPOS>SUBSTRUCTURE
     1 GGB         1 TEMP              0 ****  ****    0 ROOT
