@<TRIPOS>MOLECULE
GGC
   54    55     1     0     0
SMALL
abcg2


@<TRIPOS>ATOM
      1 CB1         13.9490    69.7780     1.5390 c3         1 GGC      -0.040400
      2 CG1         13.7580    70.3000     0.1160 c3         1 GGC      -0.142400
      3 CD1         12.7660    69.4730    -0.6740 c          1 GGC       0.612100
      4 OE1         11.6760    69.1350    -0.2060 o          1 GGC      -0.650100
      5 C1          14.4470    72.0900     2.4290 c          1 GGC       0.678000
      6 O11         15.0880    72.9280     1.7430 o          1 GGC      -0.742500
      7 O12         13.4410    72.3320     3.1460 o          1 GGC      -0.742500
      8 N1          15.0600    69.9930     3.6990 n8         1 GGC      -1.000200
      9 CA1         14.9220    70.6160     2.3720 c3         1 GGC       0.020500
     10 N2          13.1490    69.1510    -1.9270 ns         1 GGC      -0.488900
     11 CA2         12.3060    68.4250    -2.8430 c3         1 GGC       0.024700
     12 CB2         11.7330    69.3200    -3.9560 c3         1 GGC       0.058600
     13 SG2         10.6760    70.6800    -3.3910 ss         1 GGC      -0.464000
     14 C2          13.0950    67.2880    -3.4980 c          1 GGC       0.589100
     15 O2          14.2850    67.4250    -3.7830 o          1 GGC      -0.634100
     16 C9           8.5850    64.9790    -4.0380 ca         1 GGC      -0.118000
     17 C11          9.0990    64.5490    -2.8430 ca         1 GGC      -0.087000
     18 C3           9.4490    65.4920    -1.8530 ca         1 GGC      -0.088000
     19 C4           9.3020    66.8370    -2.0840 ca         1 GGC      -0.114000
     20 C4A          8.8080    67.3250    -3.3240 ca         1 GGC      -0.032000
     21 C8A          8.4160    66.3600    -4.3090 ca         1 GGC      -0.042000
     22 C8           7.8750    66.7980    -5.5400 ca         1 GGC      -0.103000
     23 C7           7.7270    68.1370    -5.7950 ca         1 GGC      -0.120000
     24 C6           8.1460    69.0860    -4.8450 ca         1 GGC      -0.114000
     25 C5           8.6930    68.7140    -3.6360 ca         1 GGC      -0.061300
     26 C10          9.2140    69.7830    -2.7160 c3         1 GGC       0.113900
     27 N3          12.3680    66.2000    -3.7850 ns         1 GGC      -0.454900
     28 CA3         12.9190    65.0140    -4.4040 c3         1 GGC      -0.049000
     29 C12         13.4890    63.9540    -3.4250 c          1 GGC       0.703000
     30 O31         14.0540    62.9840    -3.9890 o          1 GGC      -0.731500
     31 O32         13.3340    64.1340    -2.1960 o          1 GGC      -0.731500
     32 HB11        14.3210    68.7510     1.5060 hc         1 GGC       0.044700
     33 HB12        12.9830    69.7570     2.0480 hc         1 GGC       0.044700
     34 HG11        14.7160    70.3460    -0.4060 hc         1 GGC       0.068200
     35 HG12        13.3610    71.3200     0.1410 hc         1 GGC       0.068200
     36 HN11        14.1950    70.1600     4.2070 hn         1 GGC       0.378500
     37 HN12        15.7770    70.4870     4.2230 hn         1 GGC       0.378500
     38 HA1         15.9050    70.6020     1.8950 h1         1 GGC       0.039700
     39 HN2         14.0640    69.4220    -2.2530 hn         1 GGC       0.329500
     40 HA2         11.4950    68.0090    -2.2550 h1         1 GGC       0.087700
     41 HB21        11.1770    68.7090    -4.6670 h1         1 GGC       0.073700
     42 HB22        12.5500    69.8030    -4.4940 h1         1 GGC       0.073700
     43 H3           9.8430    65.1520    -0.9030 ha         1 GGC       0.136000
     44 H4           9.5750    67.5290    -1.3010 ha         1 GGC       0.144000
     45 H8           7.5800    66.0570    -6.2730 ha         1 GGC       0.102000
     46 H7           7.3030    68.4720    -6.7330 ha         1 GGC       0.099000
     47 H6           8.0620    70.1400    -5.0800 ha         1 GGC       0.112000
     48 H101         8.4760    70.5750    -2.5840 h1         1 GGC       0.085200
     49 H102         9.4780    69.4080    -1.7330 h1         1 GGC       0.085200
     50 HN3         11.4420    66.1320    -3.3910 hn         1 GGC       0.304500
     51 HA31        13.7120    65.3120    -5.0870 h1         1 GGC       0.035700
     52 HA32        12.1340    64.5370    -4.9920 h1         1 GGC       0.035700
     53 H1           8.2980    64.2660    -4.8020 ha         1 GGC       0.103000
     54 H2           9.2320    63.4920    -2.6520 ha         1 GGC       0.122000
@<TRIPOS>BOND
     1     1     2 1   
     2     1     9 1   
     3     1    32 1   
     4     1    33 1   
     5     2     3 1   
     6     2    34 1   
     7     2    35 1   
     8     3     4 2   
     9     3    10 1   
    10     5     6 1   
    11     5     7 1   
    12     5     9 1   
    13     8     9 1   
    14     8    36 1   
    15     8    37 1   
    16     9    38 1   
    17    10    11 1   
    18    10    39 1   
    19    11    12 1   
    20    11    14 1   
    21    11    40 1   
    22    12    13 1   
    23    12    41 1   
    24    12    42 1   
    25    13    26 1   
    26    14    15 2   
    27    14    27 1   
    28    16    17 ar  
    29    16    21 ar  
    30    16    53 1   
    31    17    18 ar  
    32    17    54 1   
    33    18    19 ar  
    34    18    43 1   
    35    19    20 ar  
    36    19    44 1   
    37    20    21 ar  
    38    20    25 ar  
    39    21    22 ar  
    40    22    23 ar  
    41    22    45 1   
    42    23    24 ar  
    43    23    46 1   
    44    24    25 ar  
    45    24    47 1   
    46    25    26 1   
    47    26    48 1   
    48    26    49 1   
    49    27    28 1   
    50    27    50 1   
    51    28    29 1   
    52    28    51 1   
    53    28    52 1   
    54    29    30 1   
    55    29    31 1   
@<TRIPOS>SUBSTRUCTURE
     1 GGC         1 TEMP              0 ****  ****    0 ROOT
