@<TRIPOS>MOLECULE
GGC
   54    55     1     0     0
SMALL
No Charge or Current Charge


@<TRIPOS>ATOM
      1 CB1         14.1560    69.9310     1.4730 c3         1 GGC      -0.040400
      2 CG1         13.5490    70.6840     0.2630 c3         1 GGC      -0.142400
      3 CD1         12.5310    69.8170    -0.4820 c          1 GGC       0.612100
      4 OE1         11.4140    69.5890    -0.0380 o          1 GGC      -0.650100
      5 C1          14.7230    72.1140     2.7620 c          1 GGC       0.678000
      6 O11         15.1920    73.1410     2.2900 o          1 GGC      -0.742500
      7 O12         13.9510    72.1120     3.7130 o          1 GGC      -0.742500
      8 N1          15.9210    69.8350     3.2470 n8         1 GGC      -1.000200
      9 CA1         15.2630    70.7240     2.2220 c3         1 GGC       0.020500
     10 N2          12.9580    69.3280    -1.6960 ns         1 GGC      -0.488900
     11 CA2         12.1320    68.5220    -2.6290 c3         1 GGC       0.024700
     12 CB2         11.6440    69.3780    -3.8230 c3         1 GGC       0.058600
     13 SG2         10.4260    70.6960    -3.3290 ss         1 GGC      -0.464000
     14 C2          12.9230    67.2930    -3.1500 c          1 GGC       0.589100
     15 O2          14.1480    67.2370    -3.1550 o          1 GGC      -0.634100
     16 C9           8.6650    64.8550    -4.3700 ca         1 GGC      -0.118000
     17 C11          8.9840    64.3720    -3.0940 ca         1 GGC      -0.087000
     18 C3           9.1740    65.2730    -2.0370 ca         1 GGC      -0.088000
     19 C4           9.0580    66.6560    -2.2550 ca         1 GGC      -0.114000
     20 C4A          8.7570    67.1670    -3.5430 ca         1 GGC      -0.032000
     21 C8A          8.5460    66.2390    -4.5980 ca         1 GGC      -0.042000
     22 C8           8.2180    66.6870    -5.8890 ca         1 GGC      -0.103000
     23 C7           8.0950    68.0560    -6.1470 ca         1 GGC      -0.120000
     24 C6           8.3180    68.9840    -5.1210 ca         1 GGC      -0.114000
     25 C5           8.6630    68.5630    -3.8200 ca         1 GGC      -0.061300
     26 C10          8.9680    69.6670    -2.7980 c3         1 GGC       0.113900
     27 N3          12.1400    66.2530    -3.6120 ns         1 GGC      -0.454900
     28 CA3         12.6630    64.9760    -4.1470 c3         1 GGC      -0.049000
     29 C12         13.2250    64.0410    -3.0370 c          1 GGC       0.703000
     30 O31         14.3190    63.5240    -3.2180 o          1 GGC      -0.731500
     31 O32         12.5500    63.8450    -2.0360 o          1 GGC      -0.731500
     32 HB11        14.5770    68.9830     1.1160 hc         1 GGC       0.044700
     33 HB12        13.3530    69.6750     2.1760 hc         1 GGC       0.044700
     34 HG11        14.3630    70.9700    -0.4140 hc         1 GGC       0.068200
     35 HG12        13.0360    71.5820     0.6250 hc         1 GGC       0.068200
     36 HN11        15.2640    69.7050     4.0270 hn         1 GGC       0.378500
     37 HN12        16.6980    70.3480     3.6810 hn         1 GGC       0.378500
     38 HA1         16.0390    70.9620     1.4810 h1         1 GGC       0.039700
     39 HN2         13.9130    69.5380    -1.9620 hn         1 GGC       0.329500
     40 HA2         11.2660    68.1280    -2.0880 h1         1 GGC       0.087700
     41 HB21        11.1810    68.7310    -4.5790 h1         1 GGC       0.073700
     42 HB22        12.5100    69.8590    -4.2970 h1         1 GGC       0.073700
     43 H3           9.4140    64.8970    -1.0440 ha         1 GGC       0.136000
     44 H4           9.2020    67.3040    -1.3970 ha         1 GGC       0.144000
     45 H8           8.0540    65.9730    -6.6930 ha         1 GGC       0.102000
     46 H7           7.8380    68.4010    -7.1460 ha         1 GGC       0.099000
     47 H6           8.2400    70.0460    -5.3440 ha         1 GGC       0.112000
     48 H101         8.0930    70.3240    -2.7110 h1         1 GGC       0.085200
     49 H102         9.1700    69.2780    -1.7970 h1         1 GGC       0.085200
     50 HN3         11.1340    66.3650    -3.5400 hn         1 GGC       0.304500
     51 HA31        13.4540    65.1870    -4.8780 h1         1 GGC       0.035700
     52 HA32        11.8490    64.4480    -4.6600 h1         1 GGC       0.035700
     53 H1           8.5100    64.1500    -5.1830 ha         1 GGC       0.103000
     54 H2           9.0780    63.3020    -2.9220 ha         1 GGC       0.122000
@<TRIPOS>BOND
     1     1     2 1   
     2     1     9 1   
     3     1    32 1   
     4     1    33 1   
     5     2     3 1   
     6     2    34 1   
     7     2    35 1   
     8     3     4 2   
     9     3    10 1   
    10     5     6 1   
    11     5     7 1   
    12     5     9 1   
    13     8     9 1   
    14     8    36 1   
    15     8    37 1   
    16     9    38 1   
    17    10    11 1   
    18    10    39 1   
    19    11    12 1   
    20    11    14 1   
    21    11    40 1   
    22    12    13 1   
    23    12    41 1   
    24    12    42 1   
    25    13    26 1   
    26    14    15 2   
    27    14    27 1   
    28    16    17 ar  
    29    16    21 ar  
    30    16    53 1   
    31    17    18 ar  
    32    17    54 1   
    33    18    19 ar  
    34    18    43 1   
    35    19    20 ar  
    36    19    44 1   
    37    20    21 ar  
    38    20    25 ar  
    39    21    22 ar  
    40    22    23 ar  
    41    22    45 1   
    42    23    24 ar  
    43    23    46 1   
    44    24    25 ar  
    45    24    47 1   
    46    25    26 1   
    47    26    48 1   
    48    26    49 1   
    49    27    28 1   
    50    27    50 1   
    51    28    29 1   
    52    28    51 1   
    53    28    52 1   
    54    29    30 1   
    55    29    31 1   
@<TRIPOS>SUBSTRUCTURE
     1 GGC         1 TEMP              0 ****  ****    0 ROOT
