@<TRIPOS>MOLECULE
GGD
  161   162     1     0     0
SMALL
bcc


@<TRIPOS>ATOM
      1 CA1         -6.4730     7.3800    -6.8980 c6         1 GGD       0.357900
      2 CA2         -7.5370     8.2880    -6.2970 c6         1 GGD       0.128100
      3 CA3         -8.7090     8.3390    -7.2720 c6         1 GGD       0.071100
      4 CA4         -8.2730     8.7900    -8.6630 c6         1 GGD       0.111100
      5 CA5         -7.1450     7.8670    -9.1080 c6         1 GGD       0.120100
      6 CA6         -6.5470     8.2430   -10.4530 c3         1 GGD       0.148400
      7 OA1         -5.3670     7.3700    -6.0830 os         1 GGD      -0.372600
      8 OA2         -7.9270     7.7580    -5.0580 oh         1 GGD      -0.598800
      9 OA4         -7.8200    10.1200    -8.6680 oh         1 GGD      -0.580800
     10 OA5         -6.0920     7.8630    -8.1610 os         1 GGD      -0.436600
     11 OA6         -5.6250     7.2840   -10.9120 oh         1 GGD      -0.596800
     12 OB6        -12.7160     8.7680   -10.3770 oh         1 GGD      -0.584800
     13 CB1        -10.9910     8.8000    -6.7220 c6         1 GGD       0.320900
     14 CB2        -11.6680     9.3450    -5.4630 c6         1 GGD       0.122100
     15 CB3        -13.1550     9.0320    -5.5220 c6         1 GGD       0.118100
     16 CB4        -13.7500     9.5010    -6.8500 c6         1 GGD       0.075100
     17 CB5        -12.9450     8.9190    -8.0170 c6         1 GGD       0.129100
     18 CB6        -13.4350     9.4180    -9.3580 c3         1 GGD       0.147400
     19 OB1         -9.6740     9.2060    -6.7100 os         1 GGD      -0.394600
     20 OB2        -11.0440     8.8290    -4.3100 oh         1 GGD      -0.571800
     21 OB3        -13.7830     9.6380    -4.4250 oh         1 GGD      -0.578800
     22 OB4        -15.0910     9.0710    -6.8690 oh         1 GGD      -0.598800
     23 OB5        -11.5910     9.3020    -7.8800 os         1 GGD      -0.418600
     24 CC3         -4.5270     6.2420    -6.1960 c3         1 GGD       0.114400
     25 CC4         -3.9070     5.9520    -4.8380 c3         1 GGD       0.150100
     26 OC6         -4.9070     5.9220    -3.8180 os         1 GGD      -0.404900
     27 CC5         -5.7530     4.8970    -3.7530 c          1 GGD       0.653100
     28 OC7         -5.6440     3.9010    -4.4220 o          1 GGD      -0.554000
     29 CC6         -2.9180     7.0210    -4.4260 c3         1 GGD       0.145400
     30 OC8         -2.2480     6.5450    -3.2600 os         1 GGD      -0.427900
     31 CC7         -1.3230     7.3260    -2.7090 c          1 GGD       0.644100
     32 OC9         -1.0840     8.4410    -3.0980 o          1 GGD      -0.534000
     33 C14         -6.8590     5.1720    -2.7730 c3         1 GGD      -0.143400
     34 C15         -7.7960     3.9980    -2.5510 c3         1 GGD      -0.068400
     35 C16         -8.9670     4.3730    -1.6510 c3         1 GGD      -0.075400
     36 C17         -9.9980     3.2620    -1.5090 c3         1 GGD      -0.076400
     37 C18        -11.1600     3.6490    -0.6040 c3         1 GGD      -0.075400
     38 C19        -12.2740     2.6120    -0.5520 c3         1 GGD      -0.076400
     39 C20        -13.3910     3.0100     0.4050 c3         1 GGD      -0.070400
     40 C21        -14.5850     2.0540     0.4050 c3         1 GGD      -0.038200
     41 C22        -15.2960     2.0370    -0.9120 c2         1 GGD      -0.172200
     42 C23        -15.6570     0.9540    -1.5930 c2         1 GGD      -0.168200
     43 C24        -16.3570     0.9770    -2.9150 c3         1 GGD      -0.040200
     44 C31         -0.6120     6.6220    -1.5870 c3         1 GGD      -0.139400
     45 C32          0.2440     7.5350    -0.7220 c3         1 GGD      -0.067400
     46 C33          1.0330     6.7400     0.3080 c3         1 GGD      -0.078400
     47 C34          1.8710     7.6040     1.2420 c3         1 GGD      -0.072400
     48 C35          2.6340     6.7630     2.2560 c3         1 GGD      -0.079400
     49 C36          3.4090     7.5690     3.2890 c3         1 GGD      -0.068400
     50 C37          4.0820     6.6800     4.3420 c3         1 GGD      -0.040200
     51 C38          3.0790     5.9200     5.1530 c2         1 GGD      -0.170200
     52 C39          2.9220     4.5990     5.1450 c2         1 GGD      -0.169200
     53 C40          1.8730     3.8440     5.9010 c3         1 GGD      -0.040200
     54 C41          0.9610     3.0180     4.9870 c3         1 GGD      -0.069400
     55 C42          0.1210     3.8570     4.0310 c3         1 GGD      -0.076400
     56 C43         -0.7940     3.0170     3.1470 c3         1 GGD      -0.075400
     57 C44         -1.6370     3.8500     2.1880 c3         1 GGD      -0.075400
     58 C25        -15.6690     0.1010    -3.9660 c3         1 GGD      -0.067400
     59 C26        -14.1780     0.3700    -4.1390 c3         1 GGD      -0.072400
     60 C27        -13.8240     1.8020    -4.5170 c3         1 GGD      -0.074400
     61 C28        -12.3390     1.9630    -4.8150 c3         1 GGD      -0.077400
     62 C29        -11.9120     3.3980    -5.0980 c3         1 GGD      -0.075400
     63 C30        -10.4460     3.5090    -5.5000 c3         1 GGD      -0.079400
     64 C48         -9.9730     4.9450    -5.6550 c3         1 GGD      -0.087100
     65 C45         -2.5520     3.0100     1.3040 c3         1 GGD      -0.076400
     66 C46         -3.4130     3.8440     0.3630 c3         1 GGD      -0.075400
     67 C47         -4.3320     3.0010    -0.5090 c3         1 GGD      -0.088100
     68 HA11        -6.8910     6.3590    -7.0050 h2         1 GGD       0.026700
     69 HA21        -7.1130     9.2970    -6.1880 h1         1 GGD       0.086700
     70 HA31        -9.1230     7.3250    -7.3690 h1         1 GGD       0.051700
     71 HA41        -9.1160     8.6520    -9.3560 h1         1 GGD       0.057700
     72 HA51        -7.5740     6.8560    -9.1960 h1         1 GGD       0.044700
     73 HA61        -6.0990     9.2420   -10.3970 h1         1 GGD       0.061700
     74 HA62        -7.3530     8.2890   -11.1880 h1         1 GGD       0.061700
     75 HO21        -8.7110     8.2350    -4.7570 ho         1 GGD       0.431000
     76 HO41        -8.5400    10.6830    -8.3620 ho         1 GGD       0.422000
     77 HO61        -4.8750     7.2800   -10.3090 ho         1 GGD       0.414000
     78 HO6        -13.0700     9.0580   -11.2220 ho         1 GGD       0.410000
     79 HB11       -11.0620     7.6950    -6.7150 h2         1 GGD       0.025700
     80 HB21       -11.5300    10.4320    -5.4390 h1         1 GGD       0.108700
     81 HB31       -13.2750     7.9330    -5.4810 h1         1 GGD       0.039700
     82 HB41       -13.6820    10.5970    -6.8920 h1         1 GGD       0.061700
     83 HB51       -13.0340     7.8190    -7.9940 h1         1 GGD       0.062700
     84 HB61       -13.3110    10.5090    -9.4000 h1         1 GGD       0.028700
     85 HB62       -14.5090     9.2120    -9.4300 h1         1 GGD       0.028700
     86 HO2        -11.4280     7.9730    -4.0920 ho         1 GGD       0.406000
     87 HO3        -14.7230     9.4320    -4.4730 ho         1 GGD       0.423000
     88 HO4        -15.6200     9.7050    -7.3610 ho         1 GGD       0.416000
     89 HC31        -5.0910     5.3680    -6.5350 h1         1 GGD       0.051200
     90 HC32        -3.7240     6.4050    -6.9230 h1         1 GGD       0.051200
     91 HC41        -3.3870     4.9910    -4.9070 h1         1 GGD       0.076700
     92 HC61        -3.4190     7.9710    -4.2280 h1         1 GGD       0.069700
     93 HC62        -2.1990     7.1740    -5.2340 h1         1 GGD       0.069700
     94 H141        -7.4130     6.0270    -3.1730 hc         1 GGD       0.081200
     95 H142        -6.4290     5.5200    -1.8290 hc         1 GGD       0.081200
     96 H151        -8.1760     3.6510    -3.5150 hc         1 GGD       0.051700
     97 H152        -7.2520     3.1550    -2.1140 hc         1 GGD       0.051700
     98 H161        -9.4600     5.2640    -2.0560 hc         1 GGD       0.037700
     99 H162        -8.5940     4.6580    -0.6620 hc         1 GGD       0.037700
    100 H171        -9.5180     2.3570    -1.1220 hc         1 GGD       0.040700
    101 H172       -10.3820     3.0010    -2.5010 hc         1 GGD       0.040700
    102 H181       -11.5800     4.6020    -0.9460 hc         1 GGD       0.035200
    103 H182       -10.7830     3.8330     0.4080 hc         1 GGD       0.035200
    104 H191       -11.8670     1.6410    -0.2480 hc         1 GGD       0.041700
    105 H192       -12.6810     2.4650    -1.5590 hc         1 GGD       0.041700
    106 H201       -12.9860     3.0810     1.4200 hc         1 GGD       0.037200
    107 H202       -13.7460     4.0150     0.1510 hc         1 GGD       0.037200
    108 H211       -14.2640     1.0430     0.6730 hc         1 GGD       0.044700
    109 H212       -15.2810     2.3750     1.1880 hc         1 GGD       0.044700
    110 H221       -15.5290     3.0150    -1.3330 ha         1 GGD       0.112000
    111 H231       -15.4270    -0.0280    -1.1820 ha         1 GGD       0.116000
    112 H241       -16.4370     2.0090    -3.2670 hc         1 GGD       0.042700
    113 H242       -17.3860     0.6180    -2.7960 hc         1 GGD       0.042700
    114 H311         0.0120     5.8450    -2.0440 hc         1 GGD       0.070700
    115 H312        -1.3450     6.0850    -0.9780 hc         1 GGD       0.070700
    116 H321        -0.3930     8.2670    -0.2170 hc         1 GGD       0.054700
    117 H322         0.9350     8.1020    -1.3500 hc         1 GGD       0.054700
    118 H331         1.6850     6.0270    -0.2090 hc         1 GGD       0.037700
    119 H332         0.3460     6.1360     0.9120 hc         1 GGD       0.037700
    120 H341         2.5690     8.2130     0.6580 hc         1 GGD       0.039700
    121 H342         1.2160     8.3070     1.7680 hc         1 GGD       0.039700
    122 H351         1.9270     6.1110     2.7770 hc         1 GGD       0.040200
    123 H352         3.3220     6.0920     1.7290 hc         1 GGD       0.040200
    124 H361         4.1680     8.1810     2.7930 hc         1 GGD       0.038700
    125 H362         2.7310     8.2680     3.7900 hc         1 GGD       0.038700
    126 H371         4.6890     7.3090     5.0000 hc         1 GGD       0.043700
    127 H372         4.7690     5.9850     3.8490 hc         1 GGD       0.043700
    128 H381         2.4060     6.5240     5.7610 ha         1 GGD       0.115000
    129 H391         3.5850     3.9970     4.5250 ha         1 GGD       0.114000
    130 H401         1.2700     4.5370     6.4960 hc         1 GGD       0.043700
    131 H402         2.3560     3.1630     6.6110 hc         1 GGD       0.043700
    132 H411         1.5710     2.3110     4.4130 hc         1 GGD       0.037700
    133 H412         0.2980     2.4100     5.6100 hc         1 GGD       0.037700
    134 H421        -0.4810     4.5690     4.6070 hc         1 GGD       0.040200
    135 H422         0.7780     4.4600     3.3970 hc         1 GGD       0.040200
    136 H431        -1.4550     2.4130     3.7770 hc         1 GGD       0.036700
    137 H432        -0.1890     2.3050     2.5730 hc         1 GGD       0.036700
    138 H441        -2.2410     4.5630     2.7610 hc         1 GGD       0.036200
    139 H442        -0.9780     4.4530     1.5540 hc         1 GGD       0.036200
    140 H251       -15.8050    -0.9500    -3.6920 hc         1 GGD       0.037700
    141 H252       -16.1820     0.2330    -4.9230 hc         1 GGD       0.037700
    142 H261       -13.6520     0.1130    -3.2130 hc         1 GGD       0.038700
    143 H262       -13.7880    -0.3090    -4.9050 hc         1 GGD       0.038700
    144 H271       -14.1070     2.4770    -3.7020 hc         1 GGD       0.037700
    145 H272       -14.4090     2.1150    -5.3890 hc         1 GGD       0.037700
    146 H281       -12.0730     1.3290    -5.6680 hc         1 GGD       0.038200
    147 H282       -11.7580     1.5820    -3.9670 hc         1 GGD       0.038200
    148 H291       -12.5400     3.8240    -5.8880 hc         1 GGD       0.033700
    149 H292       -12.0890     4.0110    -4.2070 hc         1 GGD       0.033700
    150 H301       -10.2820     2.9650    -6.4350 hc         1 GGD       0.042200
    151 H302        -9.8290     3.0030    -4.7500 hc         1 GGD       0.042200
    152 H481       -10.0990     5.5100    -4.7290 hc         1 GGD       0.028700
    153 H482       -10.5390     5.4590    -6.4360 hc         1 GGD       0.028700
    154 H483        -8.9170     5.0010    -5.9200 hc         1 GGD       0.028700
    155 H451        -1.9480     2.3070     0.7190 hc         1 GGD       0.037200
    156 H452        -3.2030     2.3970     1.9370 hc         1 GGD       0.037200
    157 H461        -2.7670     4.4530    -0.2780 hc         1 GGD       0.036200
    158 H462        -4.0100     4.5500     0.9490 hc         1 GGD       0.036200
    159 H471        -5.0040     2.3900     0.0960 hc         1 GGD       0.032033
    160 H472        -4.9520     3.6280    -1.1490 hc         1 GGD       0.032033
    161 H473        -3.7650     2.3300    -1.1560 hc         1 GGD       0.032033
@<TRIPOS>BOND
     1     1     2 1   
     2     1     7 1   
     3     1    10 1   
     4     1    68 1   
     5     2     3 1   
     6     2     8 1   
     7     2    69 1   
     8     3     4 1   
     9     3    19 1   
    10     3    70 1   
    11     4     5 1   
    12     4     9 1   
    13     4    71 1   
    14     5     6 1   
    15     5    10 1   
    16     5    72 1   
    17     6    11 1   
    18     6    73 1   
    19     6    74 1   
    20     7    24 1   
    21     8    75 1   
    22     9    76 1   
    23    11    77 1   
    24    12    18 1   
    25    12    78 1   
    26    13    14 1   
    27    13    19 1   
    28    13    23 1   
    29    13    79 1   
    30    14    15 1   
    31    14    20 1   
    32    14    80 1   
    33    15    16 1   
    34    15    21 1   
    35    15    81 1   
    36    16    17 1   
    37    16    22 1   
    38    16    82 1   
    39    17    18 1   
    40    17    23 1   
    41    17    83 1   
    42    18    84 1   
    43    18    85 1   
    44    20    86 1   
    45    21    87 1   
    46    22    88 1   
    47    24    25 1   
    48    24    89 1   
    49    24    90 1   
    50    25    26 1   
    51    25    29 1   
    52    25    91 1   
    53    26    27 1   
    54    27    28 2   
    55    27    33 1   
    56    29    30 1   
    57    29    92 1   
    58    29    93 1   
    59    30    31 1   
    60    31    32 2   
    61    31    44 1   
    62    33    34 1   
    63    33    94 1   
    64    33    95 1   
    65    34    35 1   
    66    34    96 1   
    67    34    97 1   
    68    35    36 1   
    69    35    98 1   
    70    35    99 1   
    71    36    37 1   
    72    36   100 1   
    73    36   101 1   
    74    37    38 1   
    75    37   102 1   
    76    37   103 1   
    77    38    39 1   
    78    38   104 1   
    79    38   105 1   
    80    39    40 1   
    81    39   106 1   
    82    39   107 1   
    83    40    41 1   
    84    40   108 1   
    85    40   109 1   
    86    41    42 2   
    87    41   110 1   
    88    42    43 1   
    89    42   111 1   
    90    43    58 1   
    91    43   112 1   
    92    43   113 1   
    93    44    45 1   
    94    44   114 1   
    95    44   115 1   
    96    45    46 1   
    97    45   116 1   
    98    45   117 1   
    99    46    47 1   
   100    46   118 1   
   101    46   119 1   
   102    47    48 1   
   103    47   120 1   
   104    47   121 1   
   105    48    49 1   
   106    48   122 1   
   107    48   123 1   
   108    49    50 1   
   109    49   124 1   
   110    49   125 1   
   111    50    51 1   
   112    50   126 1   
   113    50   127 1   
   114    51    52 2   
   115    51   128 1   
   116    52    53 1   
   117    52   129 1   
   118    53    54 1   
   119    53   130 1   
   120    53   131 1   
   121    54    55 1   
   122    54   132 1   
   123    54   133 1   
   124    55    56 1   
   125    55   134 1   
   126    55   135 1   
   127    56    57 1   
   128    56   136 1   
   129    56   137 1   
   130    57    65 1   
   131    57   138 1   
   132    57   139 1   
   133    58    59 1   
   134    58   140 1   
   135    58   141 1   
   136    59    60 1   
   137    59   142 1   
   138    59   143 1   
   139    60    61 1   
   140    60   144 1   
   141    60   145 1   
   142    61    62 1   
   143    61   146 1   
   144    61   147 1   
   145    62    63 1   
   146    62   148 1   
   147    62   149 1   
   148    63    64 1   
   149    63   150 1   
   150    63   151 1   
   151    64   152 1   
   152    64   153 1   
   153    64   154 1   
   154    65    66 1   
   155    65   155 1   
   156    65   156 1   
   157    66    67 1   
   158    66   157 1   
   159    66   158 1   
   160    67   159 1   
   161    67   160 1   
   162    67   161 1   
@<TRIPOS>SUBSTRUCTURE
     1 GGD         1 TEMP              0 ****  ****    0 ROOT
