@<TRIPOS>MOLECULE
GGD
  161   162     1     0     0
SMALL
No Charge or Current Charge


@<TRIPOS>ATOM
      1 CA1         -7.0960     6.5610    -6.5890 c6         1 GGD       0.404300
      2 CA2         -8.0360     7.6990    -6.0690 c6         1 GGD       0.151300
      3 CA3         -9.2480     7.8750    -7.0300 c6         1 GGD       0.094300
      4 CA4         -8.7500     8.0950    -8.4980 c6         1 GGD       0.134300
      5 CA5         -7.7220     6.9750    -8.8800 c6         1 GGD       0.143300
      6 CA6         -7.0860     7.1760   -10.2900 c3         1 GGD       0.171600
      7 OA1         -5.9530     6.3950    -5.7340 os         1 GGD      -0.419000
      8 OA2         -8.5200     7.5000    -4.7180 oh         1 GGD      -0.721000
      9 OA4         -8.2220     9.4260    -8.6330 oh         1 GGD      -0.703000
     10 OA5         -6.6390     6.8910    -7.9170 os         1 GGD      -0.483000
     11 OA6         -5.9850     6.2740   -10.4940 oh         1 GGD      -0.719000
     12 OB6        -10.4420    10.6660   -11.0970 oh         1 GGD      -0.707000
     13 CB1        -11.2760     9.2530    -7.2430 c6         1 GGD       0.367300
     14 CB2        -12.3300     9.9370    -6.3120 c6         1 GGD       0.145300
     15 CB3        -13.5820    10.2970    -7.1610 c6         1 GGD       0.141300
     16 CB4        -13.1840    11.1820    -8.3810 c6         1 GGD       0.098300
     17 CB5        -12.0670    10.4520    -9.1990 c6         1 GGD       0.152300
     18 CB6        -11.5290    11.3020   -10.3960 c3         1 GGD       0.170600
     19 OB1        -10.0600     8.9710    -6.5260 os         1 GGD      -0.441000
     20 OB2        -12.7140     9.1120    -5.1850 oh         1 GGD      -0.694000
     21 OB3        -14.5650    10.9730    -6.3600 oh         1 GGD      -0.641000
     22 OB4        -14.3560    11.4620    -9.1790 oh         1 GGD      -0.721000
     23 OB5        -10.9480    10.1470    -8.3270 os         1 GGD      -0.465000
     24 CC3         -5.0770     5.2930    -6.0400 c3         1 GGD       0.137600
     25 CC4         -3.9670     5.2070    -4.9550 c3         1 GGD       0.173300
     26 OC6         -4.5620     4.8330    -3.6870 os         1 GGD      -0.428100
     27 CC5         -4.9430     3.5320    -3.4890 c          1 GGD       0.604100
     28 OC7         -4.7680     2.6260    -4.2910 o          1 GGD      -0.505000
     29 CC6         -3.2160     6.5460    -4.7560 c3         1 GGD       0.168600
     30 OC8         -2.1660     6.3450    -3.7860 os         1 GGD      -0.451100
     31 CC7         -1.3850     7.4190    -3.4550 c          1 GGD       0.595100
     32 OC9         -1.5030     8.5340    -3.9450 o          1 GGD      -0.485000
     33 C14         -5.5240     3.3210    -2.0910 c3         1 GGD      -0.143400
     34 C15         -7.0600     3.1650    -2.1440 c3         1 GGD      -0.068400
     35 C16         -7.7140     3.0850    -0.7480 c3         1 GGD      -0.075400
     36 C17         -9.2360     2.8280    -0.8060 c3         1 GGD      -0.076400
     37 C18         -9.9090     2.8990     0.5810 c3         1 GGD      -0.075400
     38 C19        -11.4130     2.5510     0.5510 c3         1 GGD      -0.076400
     39 C20        -12.1100     2.8070     1.9090 c3         1 GGD      -0.070400
     40 C21        -13.5860     2.3550     1.9650 c3         1 GGD      -0.038200
     41 C22        -14.4360     2.9440     0.8580 c2         1 GGD      -0.222200
     42 C23        -15.3330     2.2590     0.1340 c2         1 GGD      -0.218200
     43 C24        -16.0910     2.8050    -1.0590 c3         1 GGD      -0.040200
     44 C31         -0.4670     7.1070    -2.2720 c3         1 GGD      -0.139400
     45 C32         -1.1900     7.4000    -0.9360 c3         1 GGD      -0.067400
     46 C33         -0.3000     7.2000     0.3090 c3         1 GGD      -0.078400
     47 C34         -1.0500     7.5060     1.6250 c3         1 GGD      -0.072400
     48 C35         -0.1890     7.2860     2.8870 c3         1 GGD      -0.079400
     49 C36         -0.9670     7.5400     4.2010 c3         1 GGD      -0.068400
     50 C37         -0.1990     7.1140     5.4730 c3         1 GGD      -0.040200
     51 C38         -0.0390     5.6100     5.5590 c2         1 GGD      -0.220200
     52 C39          1.1100     4.9430     5.3690 c2         1 GGD      -0.219200
     53 C40          1.2500     3.4350     5.3340 c3         1 GGD      -0.040200
     54 C41          1.4800     2.9180     3.8960 c3         1 GGD      -0.069400
     55 C42          0.2380     3.0520     2.9800 c3         1 GGD      -0.076400
     56 C43          0.5670     2.8550     1.4850 c3         1 GGD      -0.075400
     57 C44         -0.6580     3.0300     0.5600 c3         1 GGD      -0.075400
     58 C25        -16.0400     1.8620    -2.2850 c3         1 GGD      -0.067400
     59 C26        -14.6200     1.4230    -2.7250 c3         1 GGD      -0.072400
     60 C27        -13.7020     2.5770    -3.1870 c3         1 GGD      -0.074400
     61 C28        -12.3170     2.0800    -3.6570 c3         1 GGD      -0.077400
     62 C29        -11.4160     3.2090    -4.1990 c3         1 GGD      -0.075400
     63 C30        -10.0430     2.6970    -4.6840 c3         1 GGD      -0.079400
     64 C48         -9.1480     3.8140    -5.2510 c3         1 GGD      -0.087100
     65 C45         -0.2890     2.9210    -0.9340 c3         1 GGD      -0.076400
     66 C46         -1.4970     3.0690    -1.8820 c3         1 GGD      -0.075400
     67 C47         -1.1010     2.9370    -3.3650 c3         1 GGD      -0.088100
     68 HA11        -7.6560     5.6160    -6.6230 h2         1 GGD       0.026700
     69 HA21        -7.4480     8.6280    -6.1090 h1         1 GGD       0.086700
     70 HA31        -9.8510     6.9550    -7.0010 h1         1 GGD       0.051700
     71 HA41        -9.6130     7.9790    -9.1710 h1         1 GGD       0.057700
     72 HA51        -8.2460     6.0080    -8.8900 h1         1 GGD       0.044700
     73 HA61        -6.7380     8.2150   -10.3740 h1         1 GGD       0.061700
     74 HA62        -7.8620     7.0270   -11.0530 h1         1 GGD       0.061700
     75 HO21        -9.2980     8.1030    -4.6420 ho         1 GGD       0.530000
     76 HO41        -9.0190    10.0060    -8.5170 ho         1 GGD       0.521000
     77 HO61        -5.5510     6.2220    -9.6090 ho         1 GGD       0.513000
     78 HO6        -10.1460    11.2930   -11.7970 ho         1 GGD       0.509000
     79 HB11       -11.6960     8.3180    -7.6410 h2         1 GGD       0.025700
     80 HB21       -11.8810    10.8770    -5.9540 h1         1 GGD       0.108700
     81 HB31       -14.0100     9.3610    -7.5500 h1         1 GGD       0.039700
     82 HB41       -12.7600    12.1220    -7.9950 h1         1 GGD       0.061700
     83 HB51       -12.4660     9.5100    -9.6030 h1         1 GGD       0.062700
     84 HB61       -11.2040    12.2760   -10.0060 h1         1 GGD       0.028700
     85 HB62       -12.3590    11.4870   -11.0900 h1         1 GGD       0.028700
     86 HO2        -13.5710     9.4910    -4.8750 ho         1 GGD       0.505000
     87 HO3        -15.1860    11.3740    -7.0110 ho         1 GGD       0.462000
     88 HO4        -14.1960    12.3040    -9.6680 ho         1 GGD       0.515000
     89 HC31        -5.6350     4.3490    -6.0810 h1         1 GGD       0.051200
     90 HC32        -4.6020     5.4420    -7.0190 h1         1 GGD       0.051200
     91 HC41        -3.2300     4.4590    -5.2740 h1         1 GGD       0.076700
     92 HC61        -3.9220     7.3130    -4.4100 h1         1 GGD       0.069700
     93 HC62        -2.8000     6.8730    -5.7180 h1         1 GGD       0.069700
     94 H141        -5.2890     4.1930    -1.4680 hc         1 GGD       0.081200
     95 H142        -5.0870     2.4150    -1.6560 hc         1 GGD       0.081200
     96 H151        -7.4880     4.0170    -2.6860 hc         1 GGD       0.051700
     97 H152        -7.3080     2.2620    -2.7160 hc         1 GGD       0.051700
     98 H161        -7.5240     4.0240    -0.2130 hc         1 GGD       0.037700
     99 H162        -7.2380     2.2840    -0.1690 hc         1 GGD       0.037700
    100 H171        -9.4180     1.8410    -1.2510 hc         1 GGD       0.040700
    101 H172        -9.7030     3.5690    -1.4660 hc         1 GGD       0.040700
    102 H181        -9.7800     3.9110     0.9840 hc         1 GGD       0.035200
    103 H182        -9.3970     2.2140     1.2690 hc         1 GGD       0.035200
    104 H191       -11.5350     1.4980     0.2680 hc         1 GGD       0.041700
    105 H192       -11.9030     3.1490    -0.2270 hc         1 GGD       0.041700
    106 H201       -11.5560     2.2890     2.7020 hc         1 GGD       0.037200
    107 H202       -12.0570     3.8790     2.1390 hc         1 GGD       0.037200
    108 H211       -13.6230     1.2590     1.9310 hc         1 GGD       0.044700
    109 H212       -14.0000     2.6450     2.9390 hc         1 GGD       0.044700
    110 H221       -14.2280     3.9920     0.6330 ha         1 GGD       0.162000
    111 H231       -15.5270     1.2060     0.3490 ha         1 GGD       0.166000
    112 H241       -15.7020     3.7900    -1.3430 hc         1 GGD       0.042700
    113 H242       -17.1420     2.9610    -0.7850 hc         1 GGD       0.042700
    114 H311         0.4330     7.7280    -2.3410 hc         1 GGD       0.070700
    115 H312        -0.2090     6.0420    -2.2840 hc         1 GGD       0.070700
    116 H321        -2.0730     6.7530    -0.8580 hc         1 GGD       0.054700
    117 H322        -1.5560     8.4350    -0.9480 hc         1 GGD       0.054700
    118 H331         0.5800     7.8510     0.2350 hc         1 GGD       0.037700
    119 H332         0.0660     6.1660     0.3300 hc         1 GGD       0.037700
    120 H341        -1.4050     8.5440     1.6070 hc         1 GGD       0.039700
    121 H342        -1.9390     6.8650     1.6830 hc         1 GGD       0.039700
    122 H351         0.1930     6.2610     2.8750 hc         1 GGD       0.040200
    123 H352         0.6850     7.9470     2.8520 hc         1 GGD       0.040200
    124 H361        -1.2070     8.6090     4.2700 hc         1 GGD       0.038700
    125 H362        -1.9240     7.0040     4.1710 hc         1 GGD       0.038700
    126 H371        -0.7400     7.4770     6.3560 hc         1 GGD       0.043700
    127 H372         0.7790     7.6120     5.4840 hc         1 GGD       0.043700
    128 H381        -0.9690     5.0680     5.7390 ha         1 GGD       0.165000
    129 H391         2.0350     5.4850     5.1650 ha         1 GGD       0.164000
    130 H401         0.3600     2.9480     5.7520 hc         1 GGD       0.043700
    131 H402         2.0950     3.1300     5.9640 hc         1 GGD       0.043700
    132 H411         2.3240     3.4660     3.4570 hc         1 GGD       0.037700
    133 H412         1.7780     1.8630     3.9360 hc         1 GGD       0.037700
    134 H421        -0.5180     2.3200     3.2900 hc         1 GGD       0.040200
    135 H422        -0.2140     4.0400     3.1100 hc         1 GGD       0.040200
    136 H431         0.9940     1.8550     1.3360 hc         1 GGD       0.036700
    137 H432         1.3380     3.5790     1.1930 hc         1 GGD       0.036700
    138 H441        -1.4090     2.2690     0.8070 hc         1 GGD       0.036200
    139 H442        -1.1200     4.0080     0.7470 hc         1 GGD       0.036200
    140 H251       -16.6220     0.9610    -2.0550 hc         1 GGD       0.037700
    141 H252       -16.5450     2.3480    -3.1290 hc         1 GGD       0.037700
    142 H261       -14.1340     0.8790    -1.9060 hc         1 GGD       0.038700
    143 H262       -14.7250     0.7060    -3.5490 hc         1 GGD       0.038700
    144 H271       -13.5620     3.2900    -2.3650 hc         1 GGD       0.037700
    145 H272       -14.1910     3.1190    -4.0060 hc         1 GGD       0.037700
    146 H281       -12.4540     1.3250    -4.4410 hc         1 GGD       0.038200
    147 H282       -11.8100     1.5840    -2.8190 hc         1 GGD       0.038200
    148 H291       -11.9270     3.7090    -5.0320 hc         1 GGD       0.033700
    149 H292       -11.2670     3.9620    -3.4160 hc         1 GGD       0.033700
    150 H301       -10.1900     1.9330    -5.4580 hc         1 GGD       0.042200
    151 H302        -9.5230     2.2080    -3.8510 hc         1 GGD       0.042200
    152 H481        -8.9870     4.5980    -4.5020 hc         1 GGD       0.028700
    153 H482        -9.6120     4.2690    -6.1340 hc         1 GGD       0.028700
    154 H483        -8.1710     3.4100    -5.5430 hc         1 GGD       0.028700
    155 H451         0.4530     3.6930    -1.1770 hc         1 GGD       0.037200
    156 H452         0.1900     1.9510    -1.1130 hc         1 GGD       0.037200
    157 H461        -1.9750     4.0440    -1.7220 hc         1 GGD       0.036200
    158 H462        -2.2440     2.3020    -1.6420 hc         1 GGD       0.036200
    159 H471        -0.6100     1.9740    -3.5510 hc         1 GGD       0.032033
    160 H472        -1.9870     2.9930    -4.0050 hc         1 GGD       0.032033
    161 H473        -0.4140     3.7390    -3.6570 hc         1 GGD       0.032033
@<TRIPOS>BOND
     1     1     2 1   
     2     1     7 1   
     3     1    10 1   
     4     1    68 1   
     5     2     3 1   
     6     2     8 1   
     7     2    69 1   
     8     3     4 1   
     9     3    19 1   
    10     3    70 1   
    11     4     5 1   
    12     4     9 1   
    13     4    71 1   
    14     5     6 1   
    15     5    10 1   
    16     5    72 1   
    17     6    11 1   
    18     6    73 1   
    19     6    74 1   
    20     7    24 1   
    21     8    75 1   
    22     9    76 1   
    23    11    77 1   
    24    12    18 1   
    25    12    78 1   
    26    13    14 1   
    27    13    19 1   
    28    13    23 1   
    29    13    79 1   
    30    14    15 1   
    31    14    20 1   
    32    14    80 1   
    33    15    16 1   
    34    15    21 1   
    35    15    81 1   
    36    16    17 1   
    37    16    22 1   
    38    16    82 1   
    39    17    18 1   
    40    17    23 1   
    41    17    83 1   
    42    18    84 1   
    43    18    85 1   
    44    20    86 1   
    45    21    87 1   
    46    22    88 1   
    47    24    25 1   
    48    24    89 1   
    49    24    90 1   
    50    25    26 1   
    51    25    29 1   
    52    25    91 1   
    53    26    27 1   
    54    27    28 2   
    55    27    33 1   
    56    29    30 1   
    57    29    92 1   
    58    29    93 1   
    59    30    31 1   
    60    31    32 2   
    61    31    44 1   
    62    33    34 1   
    63    33    94 1   
    64    33    95 1   
    65    34    35 1   
    66    34    96 1   
    67    34    97 1   
    68    35    36 1   
    69    35    98 1   
    70    35    99 1   
    71    36    37 1   
    72    36   100 1   
    73    36   101 1   
    74    37    38 1   
    75    37   102 1   
    76    37   103 1   
    77    38    39 1   
    78    38   104 1   
    79    38   105 1   
    80    39    40 1   
    81    39   106 1   
    82    39   107 1   
    83    40    41 1   
    84    40   108 1   
    85    40   109 1   
    86    41    42 2   
    87    41   110 1   
    88    42    43 1   
    89    42   111 1   
    90    43    58 1   
    91    43   112 1   
    92    43   113 1   
    93    44    45 1   
    94    44   114 1   
    95    44   115 1   
    96    45    46 1   
    97    45   116 1   
    98    45   117 1   
    99    46    47 1   
   100    46   118 1   
   101    46   119 1   
   102    47    48 1   
   103    47   120 1   
   104    47   121 1   
   105    48    49 1   
   106    48   122 1   
   107    48   123 1   
   108    49    50 1   
   109    49   124 1   
   110    49   125 1   
   111    50    51 1   
   112    50   126 1   
   113    50   127 1   
   114    51    52 2   
   115    51   128 1   
   116    52    53 1   
   117    52   129 1   
   118    53    54 1   
   119    53   130 1   
   120    53   131 1   
   121    54    55 1   
   122    54   132 1   
   123    54   133 1   
   124    55    56 1   
   125    55   134 1   
   126    55   135 1   
   127    56    57 1   
   128    56   136 1   
   129    56   137 1   
   130    57    65 1   
   131    57   138 1   
   132    57   139 1   
   133    58    59 1   
   134    58   140 1   
   135    58   141 1   
   136    59    60 1   
   137    59   142 1   
   138    59   143 1   
   139    60    61 1   
   140    60   144 1   
   141    60   145 1   
   142    61    62 1   
   143    61   146 1   
   144    61   147 1   
   145    62    63 1   
   146    62   148 1   
   147    62   149 1   
   148    63    64 1   
   149    63   150 1   
   150    63   151 1   
   151    64   152 1   
   152    64   153 1   
   153    64   154 1   
   154    65    66 1   
   155    65   155 1   
   156    65   156 1   
   157    66    67 1   
   158    66   157 1   
   159    66   158 1   
   160    67   159 1   
   161    67   160 1   
   162    67   161 1   
@<TRIPOS>SUBSTRUCTURE
     1 GGD         1 TEMP              0 ****  ****    0 ROOT
