@<TRIPOS>MOLECULE
GGE
   43    44     1     0     0
SMALL
No Charge or Current Charge


@<TRIPOS>ATOM
      1 C01         -3.7000    -1.7730     2.3260 c3         1 GGE       0.153900
      2 O02         -3.8900    -1.6480     0.9040 os         1 GGE      -0.369100
      3 C03         -3.2070    -0.7110     0.1440 ca         1 GGE       0.046100
      4 C04         -3.4500    -0.6790    -1.2440 ca         1 GGE       0.124100
      5 O05         -4.3390    -1.5560    -1.7940 oh         1 GGE      -0.535100
      6 C06         -2.7850     0.2470    -2.0590 ca         1 GGE      -0.128000
      7 C07         -1.8680     1.1500    -1.4950 ca         1 GGE      -0.102000
      8 C08         -1.6110     1.1330    -0.1070 ca         1 GGE      -0.120300
      9 C09         -2.2860     0.2000     0.7100 ca         1 GGE      -0.120000
     10 C10         -0.6070     2.1100     0.5120 c3         1 GGE       0.226600
     11 O11         -1.0640     3.4520     0.2670 oh         1 GGE      -0.638000
     12 C12          0.8370     1.9160    -0.0420 c3         1 GGE       0.144300
     13 C13          1.8930     2.8220     0.6660 c3         1 GGE       0.145600
     14 O14          1.9830     2.5490     2.0770 oh         1 GGE      -0.639000
     15 O15          1.1960     0.5250     0.1470 os         1 GGE      -0.318100
     16 C16          2.2640    -0.0920    -0.4880 ca         1 GGE       0.126100
     17 C17          2.9830     0.5350    -1.5330 ca         1 GGE      -0.176000
     18 C18          4.0530    -0.1320    -2.1540 ca         1 GGE      -0.105000
     19 C19          4.4110    -1.4250    -1.7450 ca         1 GGE      -0.111000
     20 C20          3.7000    -2.0620    -0.7150 ca         1 GGE      -0.167000
     21 C21          2.6210    -1.4020    -0.0810 ca         1 GGE       0.108100
     22 O22          1.8950    -2.0030     0.9350 os         1 GGE      -0.326100
     23 C23          2.1790    -3.3320     1.4070 c3         1 GGE       0.143900
     24 H012        -3.9700    -0.8410     2.8390 h1         1 GGE       0.043033
     25 H013        -4.3330    -2.5750     2.7250 h1         1 GGE       0.043033
     26 H011        -2.6560    -2.0150     2.5610 h1         1 GGE       0.043033
     27 H051        -4.6810    -2.1040    -1.0530 ho         1 GGE       0.480000
     28 H061        -2.9780     0.2660    -3.1290 ha         1 GGE       0.129000
     29 H071        -1.3590     1.8650    -2.1370 ha         1 GGE       0.107000
     30 H091        -2.0800     0.1900     1.7770 ha         1 GGE       0.134000
     31 H101        -0.5650     1.9240     1.5950 h1         1 GGE       0.109700
     32 H111        -2.0200     3.4630     0.4870 ho         1 GGE       0.434000
     33 H121         0.8120     2.1630    -1.1100 h1         1 GGE       0.045700
     34 H131         2.8720     2.6710     0.1940 h1         1 GGE       0.025200
     35 H132         1.6220     3.8740     0.5040 h1         1 GGE       0.025200
     36 H141         2.6910     3.1280     2.4380 ho         1 GGE       0.443000
     37 H171         2.7280     1.5300    -1.8820 ha         1 GGE       0.114000
     38 H181         4.6040     0.3550    -2.9560 ha         1 GGE       0.113000
     39 H191         5.2410    -1.9360    -2.2300 ha         1 GGE       0.114000
     40 H201         3.9990    -3.0640    -0.4230 ha         1 GGE       0.117000
     41 H231         1.4840    -3.6060     2.2100 h1         1 GGE       0.038700
     42 H232         2.0710    -4.0650     0.5980 h1         1 GGE       0.038700
     43 H233         3.2000    -3.3940     1.8060 h1         1 GGE       0.038700
@<TRIPOS>BOND
     1     1     2 1   
     2     1    24 1   
     3     1    25 1   
     4     1    26 1   
     5     2     3 1   
     6     3     4 ar  
     7     3     9 ar  
     8     4     5 1   
     9     4     6 ar  
    10     5    27 1   
    11     6     7 ar  
    12     6    28 1   
    13     7     8 ar  
    14     7    29 1   
    15     8     9 ar  
    16     8    10 1   
    17     9    30 1   
    18    10    11 1   
    19    10    12 1   
    20    10    31 1   
    21    11    32 1   
    22    12    13 1   
    23    12    15 1   
    24    12    33 1   
    25    13    14 1   
    26    13    34 1   
    27    13    35 1   
    28    14    36 1   
    29    15    16 1   
    30    16    17 ar  
    31    16    21 ar  
    32    17    18 ar  
    33    17    37 1   
    34    18    19 ar  
    35    18    38 1   
    36    19    20 ar  
    37    19    39 1   
    38    20    21 ar  
    39    20    40 1   
    40    21    22 1   
    41    22    23 1   
    42    23    41 1   
    43    23    42 1   
    44    23    43 1   
@<TRIPOS>SUBSTRUCTURE
     1 GGE         1 TEMP              0 ****  ****    0 ROOT
