@<TRIPOS>MOLECULE
GGE
   43    44     1     0     0
SMALL
bcc


@<TRIPOS>ATOM
      1 C01         -2.2300    -2.5470     1.4870 c3         1 GGE       0.130700
      2 O02         -2.8590    -2.1130     0.2990 os         1 GGE      -0.345900
      3 C03         -2.6070    -0.8600    -0.1420 ca         1 GGE       0.046100
      4 C04         -3.2720    -0.5090    -1.3280 ca         1 GGE       0.124100
      5 O05         -4.0940    -1.3750    -1.9580 oh         1 GGE      -0.496100
      6 C06         -3.0820     0.7550    -1.8560 ca         1 GGE      -0.146000
      7 C07         -2.2390     1.6660    -1.2270 ca         1 GGE      -0.120000
      8 C08         -1.5740     1.3260    -0.0600 ca         1 GGE      -0.120300
      9 C09         -1.7710     0.0530     0.4780 ca         1 GGE      -0.138000
     10 C10         -0.6070     2.2790     0.6130 c3         1 GGE       0.203400
     11 O11         -0.9680     3.6270     0.4650 oh         1 GGE      -0.575800
     12 C12          0.8250     2.0320     0.0980 c3         1 GGE       0.121100
     13 C13          1.8520     3.0190     0.6210 c3         1 GGE       0.122400
     14 O14          1.8520     2.9890     2.0260 oh         1 GGE      -0.576800
     15 O15          1.1490     0.7160     0.5040 os         1 GGE      -0.294900
     16 C16          1.9400    -0.0770    -0.2430 ca         1 GGE       0.126100
     17 C17          2.5510     0.2780    -1.4350 ca         1 GGE      -0.194000
     18 C18          3.3440    -0.6390    -2.1260 ca         1 GGE      -0.123000
     19 C19          3.5310    -1.9090    -1.6210 ca         1 GGE      -0.129000
     20 C20          2.9280    -2.2760    -0.4180 ca         1 GGE      -0.185000
     21 C21          2.1390    -1.3740     0.2770 ca         1 GGE       0.108100
     22 O22          1.5250    -1.6300     1.4480 os         1 GGE      -0.302900
     23 C23          1.7450    -2.8860     2.0550 c3         1 GGE       0.120700
     24 H012        -2.5410    -1.9530     2.3500 h1         1 GGE       0.043033
     25 H013        -2.5320    -3.5800     1.6420 h1         1 GGE       0.043033
     26 H011        -1.1410    -2.5040     1.4040 h1         1 GGE       0.043033
     27 H051        -4.1210    -2.2120    -1.4790 ho         1 GGE       0.441000
     28 H061        -3.5980     1.0290    -2.7680 ha         1 GGE       0.147000
     29 H071        -2.1270     2.6450    -1.6750 ha         1 GGE       0.125000
     30 H091        -1.2560    -0.2160     1.3900 ha         1 GGE       0.152000
     31 H101        -0.6210     2.0860     1.6890 h1         1 GGE       0.109700
     32 H111        -0.8350     3.9050    -0.4470 ho         1 GGE       0.395000
     33 H121         0.8060     2.1200    -0.9960 h1         1 GGE       0.045700
     34 H131         2.8350     2.7510     0.2100 h1         1 GGE       0.025200
     35 H132         1.6140     4.0130     0.2240 h1         1 GGE       0.025200
     36 H141         2.4830     3.6430     2.3380 ho         1 GGE       0.404000
     37 H171         2.4260     1.2690    -1.8500 ha         1 GGE       0.132000
     38 H181         3.8090    -0.3410    -3.0550 ha         1 GGE       0.131000
     39 H191         4.1480    -2.6260    -2.1460 ha         1 GGE       0.132000
     40 H201         3.0880    -3.2760    -0.0370 ha         1 GGE       0.135000
     41 H231         1.2020    -2.8730     2.9970 h1         1 GGE       0.038700
     42 H232         1.3670    -3.7110     1.4440 h1         1 GGE       0.038700
     43 H233         2.8050    -3.0600     2.2610 h1         1 GGE       0.038700
@<TRIPOS>BOND
     1     1     2 1   
     2     1    24 1   
     3     1    25 1   
     4     1    26 1   
     5     2     3 1   
     6     3     4 ar  
     7     3     9 ar  
     8     4     5 1   
     9     4     6 ar  
    10     5    27 1   
    11     6     7 ar  
    12     6    28 1   
    13     7     8 ar  
    14     7    29 1   
    15     8     9 ar  
    16     8    10 1   
    17     9    30 1   
    18    10    11 1   
    19    10    12 1   
    20    10    31 1   
    21    11    32 1   
    22    12    13 1   
    23    12    15 1   
    24    12    33 1   
    25    13    14 1   
    26    13    34 1   
    27    13    35 1   
    28    14    36 1   
    29    15    16 1   
    30    16    17 ar  
    31    16    21 ar  
    32    17    18 ar  
    33    17    37 1   
    34    18    19 ar  
    35    18    38 1   
    36    19    20 ar  
    37    19    39 1   
    38    20    21 ar  
    39    20    40 1   
    40    21    22 1   
    41    22    23 1   
    42    23    41 1   
    43    23    42 1   
    44    23    43 1   
@<TRIPOS>SUBSTRUCTURE
     1 GGE         1 TEMP              0 ****  ****    0 ROOT
