@<TRIPOS>MOLECULE
GGF
   66    72     1     0     0
SMALL
abcg2


@<TRIPOS>ATOM
      1 C1         -22.9280    18.0310   -10.4530 c5         1 GGF       0.288300
      2 C1A        -17.9100    22.0670    -7.6790 c5         1 GGF       0.288300
      3 C2         -19.5250    15.9260    -8.6300 cc         1 GGF       0.720800
      4 C7         -23.1190    18.3410    -8.9720 c5         1 GGF       0.126800
      5 C21        -14.5350    19.5280    -8.5230 cc         1 GGF       0.720800
      6 C2A        -18.3220    22.4500    -9.1000 c5         1 GGF       0.126800
      7 C3         -22.9830    19.8570    -8.9650 c5         1 GGF       0.190300
      8 C3A        -19.8430    22.4530    -8.9900 c5         1 GGF       0.190300
      9 C4         -20.5190    17.2060   -10.1600 cd         1 GGF       0.136900
     10 C9         -23.6540    20.2600   -10.2770 c5         1 GGF       0.143300
     11 C41        -16.6140    19.9200    -7.8300 cd         1 GGF       0.136900
     12 C4A        -20.0520    23.0310    -7.5920 c5         1 GGF       0.143300
     13 C5         -19.3600    17.4280   -10.8980 cc         1 GGF       0.086500
     14 C10        -23.1000    21.5100   -10.9160 c3         1 GGF       0.228600
     15 C51        -16.9070    18.5900    -7.5400 cc         1 GGF       0.086500
     16 C5A        -21.3540    22.6800    -6.9160 c3         1 GGF       0.228600
     17 C6         -18.1350    16.8660   -10.4350 c          1 GGF       0.526500
     18 C61        -15.9030    17.6110    -7.7700 c          1 GGF       0.526500
     19 C8         -20.9000    18.5120   -11.9020 cd         1 GGF       0.464400
     20 C81        -18.6800    19.6950    -7.0770 cd         1 GGF       0.464400
     21 F1         -17.8670    23.7520    -9.3450 f          1 GGF      -0.263500
     22 F2         -24.4300    17.9790    -8.6360 f          1 GGF      -0.263500
     23 N1         -18.3340    16.0990    -9.2760 ns         1 GGF      -0.443900
     24 N11        -14.7250    18.1960    -8.2640 ns         1 GGF      -0.443900
     25 N3         -20.6560    16.4570    -9.0490 nd         1 GGF      -0.687100
     26 N31        -15.4720    20.4340    -8.3190 nd         1 GGF      -0.687100
     27 N7         -19.6240    18.2420   -11.9850 nc         1 GGF      -0.630000
     28 N71        -18.2040    18.4770    -7.0680 nc         1 GGF      -0.630000
     29 N9         -21.5010    17.9250   -10.8030 na         1 GGF      -0.204000
     30 N91        -17.7520    20.6210    -7.5270 na         1 GGF      -0.204000
     31 O3         -23.5920    20.5320    -7.8860 os         1 GGF      -0.576900
     32 O3A        -20.5280    23.2250    -9.9470 os         1 GGF      -0.576900
     33 O4         -23.5030    19.1120   -11.1490 os         1 GGF      -0.457500
     34 O4A        -18.9320    22.5330    -6.8250 os         1 GGF      -0.457500
     35 O5         -21.7060    21.3410   -11.1650 os         1 GGF      -0.620900
     36 O5A        -21.4460    21.2670    -6.7560 os         1 GGF      -0.620900
     37 O6         -17.0030    16.9890   -10.9070 o          1 GGF      -0.593000
     38 P1         -20.7550    22.6230   -11.4600 p5         1 GGF       1.405800
     39 P11        -22.8630    20.5450    -6.4170 p5         1 GGF       1.405800
     40 H1         -23.4360    17.1110   -10.7420 h2         1 GGF       0.083200
     41 H1A        -16.9560    22.5270    -7.4180 h2         1 GGF       0.083200
     42 H2         -22.4450    17.8180    -8.3060 h1         1 GGF       0.133200
     43 H2A        -17.9190    21.8020    -9.8710 h1         1 GGF       0.133200
     44 H3         -21.9160    20.0860    -9.0090 h1         1 GGF       0.071700
     45 H3A        -20.1770    21.4130    -9.0150 h1         1 GGF       0.071700
     46 H4         -24.7220    20.4140   -10.0990 h1         1 GGF       0.064200
     47 H4A        -19.9890    24.1220    -7.6510 h1         1 GGF       0.064200
     48 H5'1       -23.2790    22.3460   -10.2320 h1         1 GGF       0.038700
     49 H5'2       -23.6190    21.7160   -11.8540 h1         1 GGF       0.038700
     50 H5A1       -21.4080    23.1630    -5.9390 h1         1 GGF       0.038700
     51 H5A2       -22.1710    23.0610    -7.5350 h1         1 GGF       0.038700
     52 H8         -21.4600    19.1390   -12.5700 h5         1 GGF       0.104100
     53 H81        -19.6700    19.9990    -6.7770 h5         1 GGF       0.104100
     54 HN1        -17.4800    15.8030    -8.8050 hn         1 GGF       0.324500
     55 HN11       -13.9710    17.5470    -8.4520 hn         1 GGF       0.324500
     56 HN22       -20.3390    15.1820    -6.9480 hn         1 GGF       0.491250
     57 HN21       -18.6520    14.9330    -7.0720 hn         1 GGF       0.491250
     58 H212       -13.2310    20.8500    -9.3090 hn         1 GGF       0.491250
     59 H211       -12.6780    19.2240    -9.3420 hn         1 GGF       0.491250
     60 N2         -19.5240    15.1270    -7.5380 nv         1 GGF      -1.046700
     61 N21        -13.3210    19.9050    -8.9730 nv         1 GGF      -1.046700
     62 O11        -23.7160    21.4210    -5.5670 o          1 GGF      -0.817750
     63 O1P        -21.5040    23.6820   -12.1900 o          1 GGF      -0.817750
     64 O21        -22.5060    19.1550    -6.0180 o          1 GGF      -0.817750
     65 O2P        -19.4710    22.0640   -11.9700 o          1 GGF      -0.817750
     66 O61        -15.9540    16.3870    -7.6070 o          1 GGF      -0.593000
@<TRIPOS>BOND
     1     1     4 1   
     2     1    29 1   
     3     1    33 1   
     4     1    40 1   
     5     2     6 1   
     6     2    30 1   
     7     2    34 1   
     8     2    41 1   
     9     3    23 1   
    10     3    25 2   
    11     3    60 1   
    12     4     7 1   
    13     4    22 1   
    14     4    42 1   
    15     5    24 1   
    16     5    26 2   
    17     5    61 1   
    18     6     8 1   
    19     6    21 1   
    20     6    43 1   
    21     7    10 1   
    22     7    31 1   
    23     7    44 1   
    24     8    12 1   
    25     8    32 1   
    26     8    45 1   
    27     9    13 2   
    28     9    25 1   
    29     9    29 1   
    30    10    14 1   
    31    10    33 1   
    32    10    46 1   
    33    11    15 2   
    34    11    26 1   
    35    11    30 1   
    36    12    16 1   
    37    12    34 1   
    38    12    47 1   
    39    13    17 1   
    40    13    27 1   
    41    14    35 1   
    42    14    48 1   
    43    14    49 1   
    44    15    18 1   
    45    15    28 1   
    46    16    36 1   
    47    16    50 1   
    48    16    51 1   
    49    17    23 1   
    50    17    37 2   
    51    18    24 1   
    52    18    66 2   
    53    19    27 2   
    54    19    29 1   
    55    19    52 1   
    56    20    28 2   
    57    20    30 1   
    58    20    53 1   
    59    23    54 1   
    60    24    55 1   
    61    31    39 1   
    62    32    38 1   
    63    35    38 1   
    64    36    39 1   
    65    38    63 1   
    66    38    65 1   
    67    39    62 1   
    68    39    64 1   
    69    56    60 1   
    70    57    60 1   
    71    58    61 1   
    72    59    61 1   
@<TRIPOS>SUBSTRUCTURE
     1 GGF         1 TEMP              0 ****  ****    0 ROOT
