@<TRIPOS>MOLECULE
GGF
   66    72     1     0     0
SMALL
No Charge or Current Charge


@<TRIPOS>ATOM
      1 C1         -22.5670    17.9520   -10.5770 c5         1 GGF       0.288300
      2 C1A        -17.9660    22.5580    -7.2950 c5         1 GGF       0.288300
      3 C2         -19.0700    15.7720    -8.9480 cc         1 GGF       0.720800
      4 C7         -22.8810    18.2370    -9.0790 c5         1 GGF       0.126800
      5 C21        -15.7720    19.1040    -8.9980 cc         1 GGF       0.720800
      6 C2A        -18.2730    22.8880    -8.7860 c5         1 GGF       0.126800
      7 C3         -22.5890    19.7670    -9.0570 c5         1 GGF       0.190300
      8 C3A        -19.8000    22.5810    -8.7910 c5         1 GGF       0.190300
      9 C4         -20.1600    17.1300   -10.3760 cd         1 GGF       0.136900
     10 C9         -23.2570    20.2080   -10.3970 c5         1 GGF       0.143300
     11 C41        -17.1230    20.1620    -7.5380 cd         1 GGF       0.136900
     12 C4A        -20.2310    23.2270    -7.4380 c5         1 GGF       0.143300
     13 C5         -19.0240    17.3200   -11.1170 cc         1 GGF       0.086500
     14 C10        -22.6560    21.4760   -11.0600 c3         1 GGF       0.228600
     15 C51        -17.2910    19.0140    -6.8100 cc         1 GGF       0.086500
     16 C5A        -21.4830    22.6040    -6.7660 c3         1 GGF       0.228600
     17 C6         -17.7560    16.6480   -10.7370 c          1 GGF       0.526500
     18 C61        -16.6120    17.7580    -7.2140 c          1 GGF       0.526500
     19 C8         -20.5580    18.4990   -12.0650 cd         1 GGF       0.464400
     20 C81        -18.4730    20.5240    -5.8270 cd         1 GGF       0.464400
     21 F1         -18.0000    24.2390    -9.0640 f          1 GGF      -0.263500
     22 F2         -24.2260    17.9470    -8.7870 f          1 GGF      -0.263500
     23 N1         -17.9120    15.8790    -9.6300 ns         1 GGF      -0.443900
     24 N11        -15.8590    17.9360    -8.3290 ns         1 GGF      -0.443900
     25 N3         -20.2220    16.3300    -9.2360 nd         1 GGF      -0.687100
     26 N31        -16.3380    20.2470    -8.6870 nd         1 GGF      -0.687100
     27 N7         -19.2680    18.1650   -12.1720 nc         1 GGF      -0.630000
     28 N71        -18.1250    19.2360    -5.7400 nc         1 GGF      -0.630000
     29 N9         -21.1530    17.8790   -10.9660 na         1 GGF      -0.204000
     30 N91        -17.8730    21.1390    -6.9260 na         1 GGF      -0.204000
     31 O3         -23.2750    20.4270    -7.9600 os         1 GGF      -0.576900
     32 O3A        -20.4810    23.2740    -9.8710 os         1 GGF      -0.576900
     33 O4         -23.1990    19.0500   -11.2820 os         1 GGF      -0.457500
     34 O4A        -19.0610    23.1700    -6.5680 os         1 GGF      -0.457500
     35 O5         -21.2300    21.3410   -11.1490 os         1 GGF      -0.620900
     36 O5A        -21.3340    21.1790    -6.6970 os         1 GGF      -0.620900
     37 O6         -16.6740    16.7540   -11.3020 o          1 GGF      -0.593000
     38 P1         -20.3430    22.6660   -11.3610 p5         1 GGF       1.405800
     39 P11        -22.6470    20.2760    -6.4800 p5         1 GGF       1.405800
     40 H1         -23.0060    16.9970   -10.8900 h2         1 GGF       0.083200
     41 H1A        -17.0110    23.0020    -6.9900 h2         1 GGF       0.083200
     42 H2         -22.2420    17.6660    -8.3960 h1         1 GGF       0.133200
     43 H2A        -17.7050    22.2640    -9.4840 h1         1 GGF       0.133200
     44 H3         -21.5120    19.9730    -9.0310 h1         1 GGF       0.071700
     45 H3A        -19.9960    21.5020    -8.8290 h1         1 GGF       0.071700
     46 H4         -24.3210    20.4140   -10.2200 h1         1 GGF       0.064200
     47 H4A        -20.4500    24.2910    -7.5980 h1         1 GGF       0.064200
     48 H5'1       -22.9290    22.3470   -10.4490 h1         1 GGF       0.038700
     49 H5'2       -23.0990    21.6060   -12.0560 h1         1 GGF       0.038700
     50 H5A1       -21.6050    23.0340    -5.7630 h1         1 GGF       0.038700
     51 H5A2       -22.3650    22.8770    -7.3620 h1         1 GGF       0.038700
     52 H8         -21.1120    19.1490   -12.7330 h5         1 GGF       0.104100
     53 H81        -19.1200    21.0630    -5.1430 h5         1 GGF       0.104100
     54 HN1        -17.1110    15.3590    -9.3130 hn         1 GGF       0.324500
     55 HN11       -15.3350    17.1450    -8.6640 hn         1 GGF       0.324500
     56 HN22       -19.8670    15.1460    -7.3030 hn         1 GGF       0.491250
     57 HN21       -18.1820    15.3000    -7.2630 hn         1 GGF       0.491250
     58 H212       -15.1760    19.9280   -10.6400 hn         1 GGF       0.491250
     59 H211       -15.3130    18.2420   -10.7000 hn         1 GGF       0.491250
     60 N2         -19.0030    15.0890    -7.8250 nv         1 GGF      -1.046700
     61 N21        -15.1030    19.0580   -10.1300 nv         1 GGF      -1.046700
     62 O11        -23.5380    20.8720    -5.4440 o          1 GGF      -0.817750
     63 O1P        -20.9610    23.5650   -12.3780 o          1 GGF      -0.817750
     64 O21        -22.2880    18.8670    -6.1560 o          1 GGF      -0.817750
     65 O2P        -18.9350    22.3260   -11.7070 o          1 GGF      -0.817750
     66 O61        -16.6990    16.6680    -6.6630 o          1 GGF      -0.593000
@<TRIPOS>BOND
     1     1     4 1   
     2     1    29 1   
     3     1    33 1   
     4     1    40 1   
     5     2     6 1   
     6     2    30 1   
     7     2    34 1   
     8     2    41 1   
     9     3    23 1   
    10     3    25 2   
    11     3    60 1   
    12     4     7 1   
    13     4    22 1   
    14     4    42 1   
    15     5    24 1   
    16     5    26 2   
    17     5    61 1   
    18     6     8 1   
    19     6    21 1   
    20     6    43 1   
    21     7    10 1   
    22     7    31 1   
    23     7    44 1   
    24     8    12 1   
    25     8    32 1   
    26     8    45 1   
    27     9    13 2   
    28     9    25 1   
    29     9    29 1   
    30    10    14 1   
    31    10    33 1   
    32    10    46 1   
    33    11    15 2   
    34    11    26 1   
    35    11    30 1   
    36    12    16 1   
    37    12    34 1   
    38    12    47 1   
    39    13    17 1   
    40    13    27 1   
    41    14    35 1   
    42    14    48 1   
    43    14    49 1   
    44    15    18 1   
    45    15    28 1   
    46    16    36 1   
    47    16    50 1   
    48    16    51 1   
    49    17    23 1   
    50    17    37 2   
    51    18    24 1   
    52    18    66 2   
    53    19    27 2   
    54    19    29 1   
    55    19    52 1   
    56    20    28 2   
    57    20    30 1   
    58    20    53 1   
    59    23    54 1   
    60    24    55 1   
    61    31    39 1   
    62    32    38 1   
    63    35    38 1   
    64    36    39 1   
    65    38    63 1   
    66    38    65 1   
    67    39    62 1   
    68    39    64 1   
    69    56    60 1   
    70    57    60 1   
    71    58    61 1   
    72    59    61 1   
@<TRIPOS>SUBSTRUCTURE
     1 GGF         1 TEMP              0 ****  ****    0 ROOT
