@<TRIPOS>MOLECULE
GGG
   23    22     1     0     0
SMALL
No Charge or Current Charge


@<TRIPOS>ATOM
      1 N1           5.8110     0.0110    -0.2280 n8         1 GGG      -0.978200
      2 CA1          4.4710     0.5920     0.1360 c3         1 GGG       0.066800
      3 C1           3.2350    -0.3740     0.1470 c          1 GGG       0.597100
      4 O1           3.3320    -1.5950     0.2270 o          1 GGG      -0.613100
      5 N2           2.0090     0.2490     0.0670 ns         1 GGG      -0.493900
      6 CA2          0.7050    -0.4510     0.0620 c3         1 GGG       0.010000
      7 C2          -0.4830     0.5370    -0.0380 c          1 GGG       0.571100
      8 O2          -0.3420     1.7540    -0.1060 o          1 GGG      -0.670100
      9 N3          -1.7270    -0.0550    -0.0470 ns         1 GGG      -0.451900
     10 CA3         -3.0150     0.6730    -0.1470 c3         1 GGG      -0.061000
     11 C3          -4.2390    -0.2610     0.0630 c          1 GGG       0.714000
     12 O3          -4.1370    -1.4390    -0.2530 o          1 GGG      -0.726000
     13 O           -5.2410     0.2130     0.5790 o          1 GGG      -0.726000
     14 HN1          6.5470     0.7130    -0.0720 hn         1 GGG       0.396000
     15 HN1A         6.0440    -0.7420     0.4340 hn         1 GGG       0.396000
     16 HA1          4.5410     1.0360     1.1390 h1         1 GGG       0.041200
     17 HA1A         4.2510     1.4070    -0.5680 h1         1 GGG       0.041200
     18 HN2          2.0080     1.2630     0.0050 hn         1 GGG       0.338500
     19 HA2          0.6590    -1.1370    -0.7920 h1         1 GGG       0.063200
     20 HA2A         0.5960    -1.0320     0.9870 h1         1 GGG       0.063200
     21 HN3         -1.7570    -1.0690     0.0020 hn         1 GGG       0.345500
     22 HA3         -3.0400     1.4650     0.6120 h1         1 GGG       0.038200
     23 HA3A        -3.0940     1.1300    -1.1410 h1         1 GGG       0.038200
@<TRIPOS>BOND
     1     1     2 1   
     2     1    14 1   
     3     1    15 1   
     4     2     3 1   
     5     2    16 1   
     6     2    17 1   
     7     3     4 2   
     8     3     5 1   
     9     5     6 1   
    10     5    18 1   
    11     6     7 1   
    12     6    19 1   
    13     6    20 1   
    14     7     8 2   
    15     7     9 1   
    16     9    10 1   
    17     9    21 1   
    18    10    11 1   
    19    10    22 1   
    20    10    23 1   
    21    11    12 1   
    22    11    13 1   
@<TRIPOS>SUBSTRUCTURE
     1 GGG         1 TEMP              0 ****  ****    0 ROOT
