@<TRIPOS>MOLECULE
GGG
   23    22     1     0     0
SMALL
abcg2


@<TRIPOS>ATOM
      1 N1           5.5930    -0.0570    -0.1620 n8         1 GGG      -0.978200
      2 CA1          4.3490     0.6260     0.1180 c3         1 GGG       0.066800
      3 C1           3.1730    -0.3350     0.0700 c          1 GGG       0.597100
      4 O1           3.3090    -1.5480     0.1410 o          1 GGG      -0.613100
      5 N2           1.9750     0.2600    -0.0140 ns         1 GGG      -0.493900
      6 CA2          0.7370    -0.4650     0.0250 c3         1 GGG       0.010000
      7 C2          -0.4260     0.5170    -0.0180 c          1 GGG       0.571100
      8 O2          -0.2430     1.7280    -0.0700 o          1 GGG      -0.670100
      9 N3          -1.6280    -0.0510     0.0040 ns         1 GGG      -0.451900
     10 CA3         -2.8700     0.6800    -0.0240 c3         1 GGG      -0.061000
     11 C3          -4.0740    -0.2840     0.0200 c          1 GGG       0.714000
     12 O3          -3.8240    -1.5020     0.0830 o          1 GGG      -0.726000
     13 O           -5.1900     0.2630    -0.0100 o          1 GGG      -0.726000
     14 HN1          6.3510     0.6110    -0.1150 hn         1 GGG       0.396000
     15 HN1A         5.7780    -0.7400     0.5610 hn         1 GGG       0.396000
     16 HA1          4.3120     1.1270     1.0970 h1         1 GGG       0.041200
     17 HA1A         4.1970     1.4120    -0.6260 h1         1 GGG       0.041200
     18 HN2          1.9080     1.2660    -0.0680 hn         1 GGG       0.338500
     19 HA2          0.6520    -1.1560    -0.8200 h1         1 GGG       0.063200
     20 HA2A         0.6600    -1.0710     0.9330 h1         1 GGG       0.063200
     21 HN3         -1.7300    -1.0560     0.0490 hn         1 GGG       0.345500
     22 HA3         -2.9370     1.3680     0.8240 h1         1 GGG       0.038200
     23 HA3A        -2.9390     1.2930    -0.9280 h1         1 GGG       0.038200
@<TRIPOS>BOND
     1     1     2 1   
     2     1    14 1   
     3     1    15 1   
     4     2     3 1   
     5     2    16 1   
     6     2    17 1   
     7     3     4 2   
     8     3     5 1   
     9     5     6 1   
    10     5    18 1   
    11     6     7 1   
    12     6    19 1   
    13     6    20 1   
    14     7     8 2   
    15     7     9 1   
    16     9    10 1   
    17     9    21 1   
    18    10    11 1   
    19    10    22 1   
    20    10    23 1   
    21    11    12 1   
    22    11    13 1   
@<TRIPOS>SUBSTRUCTURE
     1 GGG         1 TEMP              0 ****  ****    0 ROOT
