@<TRIPOS>MOLECULE
GGH
   45    47     1     0     0
SMALL
No Charge or Current Charge


@<TRIPOS>ATOM
      1 C2           2.1380     4.1580     2.3470 cc         1 GGH       0.624800
      2 C4           1.7080     2.8300     0.5670 cd         1 GGH       0.037400
      3 C5           1.2840     3.9020    -0.1750 cc         1 GGH       0.142500
      4 C6           1.2840     5.2710     0.4050 c          1 GGH       0.514500
      5 P1           1.0740    -1.2350    -4.8840 p5         1 GGH       1.482800
      6 P2          -0.3490     0.8430    -5.5660 p5         1 GGH       1.528400
      7 O6           0.9340     6.3010    -0.1590 o          1 GGH      -0.573000
      8 O1A          0.1400    -2.3870    -5.0540 o          1 GGH      -0.875000
      9 O2A          1.9940    -1.0650    -6.0490 o          1 GGH      -0.875000
     10 O3A          0.3940     0.0980    -4.3960 os         1 GGH      -0.717800
     11 O5           1.9620    -1.4670    -3.5600 os         1 GGH      -0.603400
     12 O1B         -1.2000     0.0280    -6.4860 o          1 GGH      -0.906000
     13 O2B          0.5840     1.7190    -6.3420 o          1 GGH      -0.906000
     14 C3B         -1.3370     2.0180    -4.6550 c3         1 GGH      -0.781400
     15 P3          -2.3730     1.1180    -3.5340 p5         1 GGH       1.385500
     16 O1G         -3.0090    -0.0850    -4.1300 o          1 GGH      -0.962833
     17 O2G         -1.6000     0.7890    -2.3060 o          1 GGH      -0.962833
     18 O3G         -3.4320     2.0960    -3.1580 o          1 GGH      -0.962833
     19 C10          1.2960    -1.8980    -2.3600 c3         1 GGH       0.193600
     20 C9           2.2300    -1.6590    -1.1360 c5         1 GGH       0.139300
     21 O4           2.6180    -0.2590    -1.0640 os         1 GGH      -0.431000
     22 C1           1.9970     0.3580     0.0850 c5         1 GGH       0.321300
     23 N9           1.6010     1.7200    -0.2390 na         1 GGH      -0.173500
     24 N3           2.1640     2.9250     1.8840 nd         1 GGH      -0.643100
     25 N2           2.5450     4.3470     3.5940 nv         1 GGH      -1.066200
     26 N1           1.7360     5.2740     1.6910 ns         1 GGH      -0.457400
     27 N7           0.9040     3.4990    -1.4330 nc         1 GGH      -0.604000
     28 C8           1.0830     2.1690    -1.4540 cd         1 GGH       0.525400
     29 C7           0.8650    -0.6060     0.5100 c5         1 GGH      -0.133400
     30 C3           1.5470    -1.9680     0.2420 c5         1 GGH       0.116300
     31 O3           2.4830    -2.2850     1.2830 oh         1 GGH      -0.759000
     32 H3B1        -0.6910     2.7060    -4.1050 hc         1 GGH       0.021700
     33 H3B2        -1.9480     2.5900    -5.3570 hc         1 GGH       0.021700
     34 H5'1         0.3550    -1.3520    -2.2120 h1         1 GGH       0.066200
     35 H5'2         1.0550    -2.9680    -2.4160 h1         1 GGH       0.066200
     36 H4           3.1330    -2.2670    -1.2770 h1         1 GGH       0.022700
     37 H1           2.7410     0.4320     0.8880 h2         1 GGH       0.035700
     38 HN21         2.1950     5.1630     4.0800 hn         1 GGH       0.458500
     39 HN22         2.6510     3.5050     4.1470 hn         1 GGH       0.458500
     40 HN1          1.7830     6.1660     2.1560 hn         1 GGH       0.274500
     41 H8           0.8950     1.4940    -2.2830 h5         1 GGH       0.200100
     42 H2'1        -0.0360    -0.4650    -0.0960 hc         1 GGH       0.109200
     43 H2'2         0.5790    -0.4700     1.5580 hc         1 GGH       0.109200
     44 H3           0.8020    -2.7730     0.1490 h1         1 GGH       0.067700
     45 HO3          2.9160    -3.1360     1.0390 ho         1 GGH       0.472000
@<TRIPOS>BOND
     1     1    24 2   
     2     1    25 1   
     3     1    26 1   
     4     2     3 2   
     5     2    23 1   
     6     2    24 1   
     7     3     4 1   
     8     3    27 1   
     9     4     7 2   
    10     4    26 1   
    11     5     8 1   
    12     5     9 1   
    13     5    10 1   
    14     5    11 1   
    15     6    10 1   
    16     6    12 1   
    17     6    13 1   
    18     6    14 1   
    19    11    19 1   
    20    14    15 1   
    21    14    32 1   
    22    14    33 1   
    23    15    16 1   
    24    15    17 1   
    25    15    18 1   
    26    19    20 1   
    27    19    34 1   
    28    19    35 1   
    29    20    21 1   
    30    20    30 1   
    31    20    36 1   
    32    21    22 1   
    33    22    23 1   
    34    22    29 1   
    35    22    37 1   
    36    23    28 1   
    37    25    38 1   
    38    25    39 1   
    39    26    40 1   
    40    27    28 2   
    41    28    41 1   
    42    29    30 1   
    43    29    42 1   
    44    29    43 1   
    45    30    31 1   
    46    30    44 1   
    47    31    45 1   
@<TRIPOS>SUBSTRUCTURE
     1 GGH         1 TEMP              0 ****  ****    0 ROOT
