@<TRIPOS>MOLECULE
GGH
   45    47     1     0     0
SMALL
abcg2


@<TRIPOS>ATOM
      1 C2           2.6520     4.1480     1.7980 cc         1 GGH       0.624800
      2 C4           1.5120     2.7670     0.4980 cd         1 GGH       0.037400
      3 C5           0.8910     3.7620    -0.2330 cc         1 GGH       0.142500
      4 C6           1.1710     5.1200     0.0830 c          1 GGH       0.514500
      5 P1           1.9290    -0.6530    -4.7360 p5         1 GGH       1.482800
      6 P2          -0.0370     1.4760    -5.2990 p5         1 GGH       1.528400
      7 O6           0.7280     6.1360    -0.4300 o          1 GGH      -0.573000
      8 O1A          1.2480    -1.8450    -5.3330 o          1 GGH      -0.875000
      9 O2A          3.1180    -0.0450    -5.4210 o          1 GGH      -0.875000
     10 O3A          0.8710     0.5010    -4.3090 os         1 GGH      -0.717800
     11 O5           2.4540    -1.0370    -3.2210 os         1 GGH      -0.603400
     12 O1B         -0.3550     0.7370    -6.5730 o          1 GGH      -0.906000
     13 O2B          0.7160     2.7830    -5.4330 o          1 GGH      -0.906000
     14 C3B         -1.5020     1.7470    -4.2650 c3         1 GGH      -0.781400
     15 P3          -2.4560     0.3430    -3.4840 p5         1 GGH       1.385500
     16 O1G         -2.6950    -0.7000    -4.5740 o          1 GGH      -0.962833
     17 O2G         -1.6010    -0.1730    -2.3040 o          1 GGH      -0.962833
     18 O3G         -3.7460     1.0250    -2.9980 o          1 GGH      -0.962833
     19 C10          1.5200    -1.6060    -2.3260 c3         1 GGH       0.193600
     20 C9           2.0930    -1.5480    -0.9230 c5         1 GGH       0.139300
     21 O4           2.4130    -0.2160    -0.5360 os         1 GGH      -0.431000
     22 C1           1.4670     0.2780     0.3830 c5         1 GGH       0.321300
     23 N9           1.0380     1.5970    -0.0130 na         1 GGH      -0.173500
     24 N3           2.3870     2.9010     1.5070 nd         1 GGH      -0.643100
     25 N2           3.5470     4.4390     2.7590 nv         1 GGH      -1.066200
     26 N1           2.0890     5.2020     1.1390 ns         1 GGH      -0.457400
     27 N7           0.0620     3.2170    -1.1820 nc         1 GGH      -0.604000
     28 C8           0.1740     1.9300    -1.0350 cd         1 GGH       0.525400
     29 C7           0.3440    -0.7530     0.4400 c5         1 GGH      -0.133400
     30 C3           1.0810    -2.0400     0.1160 c5         1 GGH       0.116300
     31 O3           1.7020    -2.5040     1.2940 oh         1 GGH      -0.759000
     32 H3B1        -1.2220     2.4500    -3.4750 hc         1 GGH       0.021700
     33 H3B2        -2.2010     2.2940    -4.9100 hc         1 GGH       0.021700
     34 H5'1         0.5510    -1.0940    -2.3740 h1         1 GGH       0.066200
     35 H5'2         1.3450    -2.6630    -2.5680 h1         1 GGH       0.066200
     36 H4           3.0160    -2.1390    -0.8880 h1         1 GGH       0.022700
     37 H1           1.9360     0.4010     1.3630 h2         1 GGH       0.035700
     38 HN21         3.5740     5.3590     3.1660 hn         1 GGH       0.458500
     39 HN22         3.8190     3.6860     3.3690 hn         1 GGH       0.458500
     40 HN1          2.3470     6.1390     1.4230 hn         1 GGH       0.274500
     41 H8          -0.3660     1.1740    -1.6130 h5         1 GGH       0.200100
     42 H2'1        -0.4150    -0.5680    -0.3220 hc         1 GGH       0.109200
     43 H2'2        -0.1450    -0.7760     1.4130 hc         1 GGH       0.109200
     44 H3           0.4140    -2.8000    -0.3080 h1         1 GGH       0.067700
     45 HO3          2.2270    -3.2800     1.0760 ho         1 GGH       0.472000
@<TRIPOS>BOND
     1     1    24 2   
     2     1    25 1   
     3     1    26 1   
     4     2     3 2   
     5     2    23 1   
     6     2    24 1   
     7     3     4 1   
     8     3    27 1   
     9     4     7 2   
    10     4    26 1   
    11     5     8 1   
    12     5     9 1   
    13     5    10 1   
    14     5    11 1   
    15     6    10 1   
    16     6    12 1   
    17     6    13 1   
    18     6    14 1   
    19    11    19 1   
    20    14    15 1   
    21    14    32 1   
    22    14    33 1   
    23    15    16 1   
    24    15    17 1   
    25    15    18 1   
    26    19    20 1   
    27    19    34 1   
    28    19    35 1   
    29    20    21 1   
    30    20    30 1   
    31    20    36 1   
    32    21    22 1   
    33    22    23 1   
    34    22    29 1   
    35    22    37 1   
    36    23    28 1   
    37    25    38 1   
    38    25    39 1   
    39    26    40 1   
    40    27    28 2   
    41    28    41 1   
    42    29    30 1   
    43    29    42 1   
    44    29    43 1   
    45    30    31 1   
    46    30    44 1   
    47    31    45 1   
@<TRIPOS>SUBSTRUCTURE
     1 GGH         1 TEMP              0 ****  ****    0 ROOT
