@<TRIPOS>MOLECULE
GGI
  104   109     1     0     0
SMALL
abcg2


@<TRIPOS>ATOM
      1 C02         23.5060   -18.2550    27.8740 c          1 GGI       0.586100
      2 C04         25.0330   -20.0500    27.3120 c3         1 GGI       0.025700
      3 C05         25.1520   -21.1350    26.2330 c3         1 GGI      -0.031100
      4 C06         23.9880   -22.0870    26.2490 ca         1 GGI      -0.103300
      5 C07         23.8080   -22.9460    27.3300 ca         1 GGI      -0.081500
      6 C08         22.7560   -23.8450    27.3840 ca         1 GGI      -0.133500
      7 C09         21.8490   -23.9150    26.3270 ca         1 GGI      -0.024000
      8 C11         20.6720   -26.0160    26.9040 c          1 GGI       0.607100
      9 C13         22.0140   -23.0540    25.2440 ca         1 GGI      -0.133500
     10 C14         23.0670   -22.1510    25.2110 ca         1 GGI      -0.081500
     11 C15         26.3760   -19.3430    27.5310 c          1 GGI       0.581100
     12 C17         28.5530   -19.5500    28.6270 c3         1 GGI       0.150300
     13 C18         28.5580   -18.6770    29.8620 ca         1 GGI      -0.104300
     14 C19         29.6900   -17.9150    30.1480 ca         1 GGI      -0.104000
     15 C20         29.7550   -17.1350    31.2900 ca         1 GGI      -0.094500
     16 C21         28.6840   -17.0830    32.1820 ca         1 GGI      -0.092300
     17 C22         28.7320   -16.1960    33.3980 c3         1 GGI       0.197100
     18 C24         27.5600   -17.8470    31.8960 ca         1 GGI      -0.094500
     19 C25         27.4930   -18.6320    30.7500 ca         1 GGI      -0.104000
     20 C27         22.5970   -17.1570    27.3160 c3         1 GGI       0.151500
     21 C28         21.4010   -17.7080    26.5210 c3         1 GGI      -0.013100
     22 C29         20.5230   -18.6690    27.2710 ca         1 GGI      -0.118300
     23 C30         20.6100   -20.0380    27.0310 ca         1 GGI      -0.071000
     24 C31         19.7750   -20.9330    27.6730 ca         1 GGI      -0.153500
     25 C32         18.8180   -20.4870    28.5860 ca         1 GGI      -0.009000
     26 C34         17.1250   -21.3910    30.1780 c          1 GGI       0.598100
     27 C35         16.3990   -22.7160    30.4200 c3         1 GGI       0.093800
     28 C37         16.1120   -24.7960    29.1320 c6         1 GGI       0.177800
     29 C38         16.8900   -25.6490    28.1460 c6         1 GGI       0.171800
     30 C40         18.7040   -27.2500    27.9710 c3         1 GGI       0.190800
     31 C41         19.3680   -26.7450    26.6760 c3         1 GGI      -0.203400
     32 C42         18.8870   -25.3060    29.4340 c6         1 GGI       0.171800
     33 C43         18.0970   -24.4560    30.4120 c6         1 GGI       0.177800
     34 C45         18.7320   -19.1200    28.8530 ca         1 GGI      -0.153500
     35 C46         19.5760   -18.2350    28.1950 ca         1 GGI      -0.071000
     36 C49         24.4090   -14.8260    28.9800 ca         1 GGI      -0.307500
     37 C50         24.7220   -14.8950    30.3340 ca         1 GGI      -0.010500
     38 C51         26.0510   -14.9670    30.7130 ca         1 GGI      -0.122500
     39 C52         27.0540   -14.9750    29.7510 ca         1 GGI      -0.049000
     40 C53         26.7290   -14.9060    28.4050 ca         1 GGI      -0.122500
     41 C54         25.4000   -14.8260    28.0100 ca         1 GGI      -0.010500
     42 N03         24.0150   -19.0980    26.9590 ns         1 GGI      -0.469900
     43 N10         20.7520   -24.7880    26.3210 ns         1 GGI      -0.157000
     44 N16         27.2540   -20.0520    28.2600 ns         1 GGI      -0.501900
     45 N23         29.9670   -16.3750    34.1440 n8         1 GGI      -0.998200
     46 N33         17.9830   -21.4550    29.1400 ns         1 GGI      -0.145000
     47 N36         17.0060   -23.8110    29.7070 n3         1 GGI      -0.782600
     48 N39         18.0230   -26.2770    28.7950 n3         1 GGI      -0.738600
     49 N47         22.1440   -16.2900    28.3870 n7         1 GGI      -0.866300
     50 O01         23.7340   -18.3540    29.0680 o          1 GGI      -0.600100
     51 O12         21.5790   -26.5150    27.5460 o          1 GGI      -0.579100
     52 O26         26.6170   -18.2450    27.0620 o          1 GGI      -0.590100
     53 O44         16.8940   -20.4040    30.8550 o          1 GGI      -0.586100
     54 O55         21.9680   -14.1320    29.5910 o          1 GGI      -0.540000
     55 O56         22.6400   -14.1820    27.1630 o          1 GGI      -0.540000
     56 S48         22.7040   -14.7460    28.5010 sy         1 GGI       1.156600
     57 H041        24.7460   -20.5250    28.2530 h1         1 GGI       0.089700
     58 H051        26.0740   -21.6950    26.4050 hc         1 GGI       0.060700
     59 H052        25.2560   -20.6670    25.2510 hc         1 GGI       0.060700
     60 H071        24.5050   -22.9200    28.1600 ha         1 GGI       0.111500
     61 H081        22.6490   -24.4770    28.2510 ha         1 GGI       0.127500
     62 H131        21.3150   -23.0880    24.4160 ha         1 GGI       0.127500
     63 H141        23.1710   -21.4960    24.3540 ha         1 GGI       0.111500
     64 H172        29.2040   -20.4110    28.7910 h1         1 GGI       0.062700
     65 H171        28.9780   -19.0010    27.7860 h1         1 GGI       0.062700
     66 H191        30.5320   -17.9300    29.4650 ha         1 GGI       0.114000
     67 H201        30.6460   -16.5530    31.4900 ha         1 GGI       0.119500
     68 H222        28.6890   -15.1520    33.0720 h1         1 GGI       0.034200
     69 H221        27.8230   -16.3610    33.9930 h1         1 GGI       0.034200
     70 H241        26.7140   -17.8290    32.5740 ha         1 GGI       0.119500
     71 H251        26.5950   -19.2060    30.5570 ha         1 GGI       0.114000
     72 H271        23.1920   -16.5730    26.6080 h1         1 GGI       0.081700
     73 H281        20.8230   -16.8410    26.1930 hc         1 GGI       0.057700
     74 H282        21.7700   -18.1860    25.6120 hc         1 GGI       0.057700
     75 H301        21.3300   -20.4180    26.3180 ha         1 GGI       0.118000
     76 H311        19.8540   -21.9920    27.4540 ha         1 GGI       0.126500
     77 H351        15.3730   -22.5750    30.0700 h1         1 GGI       0.068200
     78 H352        16.3350   -22.8740    31.5040 h1         1 GGI       0.068200
     79 H371        15.3050   -24.2860    28.6030 h1         1 GGI       0.046200
     80 H372        15.6550   -25.4380    29.9010 h1         1 GGI       0.046200
     81 H381        17.1870   -25.0060    27.3020 h1         1 GGI       0.039200
     82 H382        16.2350   -26.4280    27.7460 h1         1 GGI       0.039200
     83 H401        17.9720   -28.0090    27.6860 h1         1 GGI       0.066700
     84 H402        19.4540   -27.7580    28.5810 h1         1 GGI       0.066700
     85 H411        18.6660   -26.1520    26.0880 hc         1 GGI       0.065200
     86 H412        19.6090   -27.6230    26.0700 hc         1 GGI       0.065200
     87 H422        19.6840   -25.8310    29.9660 h1         1 GGI       0.039200
     88 H421        19.3640   -24.6210    28.7140 h1         1 GGI       0.039200
     89 H431        18.7600   -23.6980    30.8370 h1         1 GGI       0.046200
     90 H432        17.7290   -25.0740    31.2460 h1         1 GGI       0.046200
     91 H451        18.0020   -18.7370    29.5490 ha         1 GGI       0.126500
     92 H461        19.4700   -17.1760    28.3950 ha         1 GGI       0.118000
     93 H501        23.9440   -14.8880    31.0860 ha         1 GGI       0.130500
     94 H511        26.3050   -15.0170    31.7630 ha         1 GGI       0.116500
     95 H521        28.0900   -15.0410    30.0560 ha         1 GGI       0.118000
     96 H531        27.5090   -14.9110    27.6550 ha         1 GGI       0.116500
     97 H541        25.1530   -14.7590    26.9590 ha         1 GGI       0.130500
     98 H031        23.9060   -18.8780    25.9800 hn         1 GGI       0.321500
     99 H101        19.9770   -24.5140    25.7360 hn         1 GGI       0.152000
    100 H161        26.9590   -20.9270    28.6630 hn         1 GGI       0.315500
    101 H231        30.0070   -15.7000    34.8960 hn         1 GGI       0.397000
    102 H232        29.9650   -17.2860    34.5850 hn         1 GGI       0.397000
    103 H331        18.0180   -22.3870    28.7300 hn         1 GGI       0.179000
    104 H471        22.0720   -16.7450    29.2920 hn         1 GGI       0.507000
@<TRIPOS>BOND
     1     1    20 1   
     2     1    42 1   
     3     1    50 2   
     4     2     3 1   
     5     2    11 1   
     6     2    42 1   
     7     2    57 1   
     8     3     4 1   
     9     3    58 1   
    10     3    59 1   
    11     4     5 ar  
    12     4    10 ar  
    13     5     6 ar  
    14     5    60 1   
    15     6     7 ar  
    16     6    61 1   
    17     7     9 ar  
    18     7    43 1   
    19     8    31 1   
    20     8    43 1   
    21     8    51 2   
    22     9    10 ar  
    23     9    62 1   
    24    10    63 1   
    25    11    44 1   
    26    11    52 2   
    27    12    13 1   
    28    12    44 1   
    29    12    64 1   
    30    12    65 1   
    31    13    14 ar  
    32    13    19 ar  
    33    14    15 ar  
    34    14    66 1   
    35    15    16 ar  
    36    15    67 1   
    37    16    17 1   
    38    16    18 ar  
    39    17    45 1   
    40    17    68 1   
    41    17    69 1   
    42    18    19 ar  
    43    18    70 1   
    44    19    71 1   
    45    20    21 1   
    46    20    49 1   
    47    20    72 1   
    48    21    22 1   
    49    21    73 1   
    50    21    74 1   
    51    22    23 ar  
    52    22    35 ar  
    53    23    24 ar  
    54    23    75 1   
    55    24    25 ar  
    56    24    76 1   
    57    25    34 ar  
    58    25    46 1   
    59    26    27 1   
    60    26    46 1   
    61    26    53 2   
    62    27    47 1   
    63    27    77 1   
    64    27    78 1   
    65    28    29 1   
    66    28    47 1   
    67    28    79 1   
    68    28    80 1   
    69    29    48 1   
    70    29    81 1   
    71    29    82 1   
    72    30    31 1   
    73    30    48 1   
    74    30    83 1   
    75    30    84 1   
    76    31    85 1   
    77    31    86 1   
    78    32    33 1   
    79    32    48 1   
    80    32    87 1   
    81    32    88 1   
    82    33    47 1   
    83    33    89 1   
    84    33    90 1   
    85    34    35 ar  
    86    34    91 1   
    87    35    92 1   
    88    36    37 ar  
    89    36    41 ar  
    90    36    56 1   
    91    37    38 ar  
    92    37    93 1   
    93    38    39 ar  
    94    38    94 1   
    95    39    40 ar  
    96    39    95 1   
    97    40    41 ar  
    98    40    96 1   
    99    41    97 1   
   100    42    98 1   
   101    43    99 1   
   102    44   100 1   
   103    45   101 1   
   104    45   102 1   
   105    46   103 1   
   106    49    56 1   
   107    49   104 1   
   108    54    56 2   
   109    55    56 2   
@<TRIPOS>SUBSTRUCTURE
     1 GGI         1 TEMP              0 ****  ****    0 ROOT
