@<TRIPOS>MOLECULE
GGI
  104   109     1     0     0
SMALL
No Charge or Current Charge


@<TRIPOS>ATOM
      1 C02         22.9780   -18.4950    28.2200 c          1 GGI       0.586100
      2 C04         25.2070   -19.6650    27.8090 c3         1 GGI       0.025700
      3 C05         24.9550   -20.8340    26.8120 c3         1 GGI      -0.031100
      4 C06         23.8880   -21.8520    27.2220 ca         1 GGI      -0.103300
      5 C07         23.9530   -22.4980    28.4730 ca         1 GGI      -0.081500
      6 C08         23.0400   -23.5150    28.8040 ca         1 GGI      -0.133500
      7 C09         22.0470   -23.9140    27.8830 ca         1 GGI      -0.024000
      8 C11         20.8870   -25.7720    29.2390 c          1 GGI       0.607100
      9 C13         21.9810   -23.2620    26.6380 ca         1 GGI      -0.133500
     10 C14         22.8920   -22.2430    26.3080 ca         1 GGI      -0.081500
     11 C15         26.6430   -19.0980    27.6190 c          1 GGI       0.581100
     12 C17         29.0770   -19.5490    28.0740 c3         1 GGI       0.150300
     13 C18         29.5030   -18.5740    29.1630 ca         1 GGI      -0.104300
     14 C19         30.0390   -17.3160    28.8230 ca         1 GGI      -0.104000
     15 C20         30.4370   -16.4180    29.8290 ca         1 GGI      -0.094500
     16 C21         30.3010   -16.7630    31.1880 ca         1 GGI      -0.092300
     17 C22         30.7160   -15.7820    32.2760 c3         1 GGI       0.197100
     18 C24         29.7680   -18.0220    31.5270 ca         1 GGI      -0.094500
     19 C25         29.3750   -18.9230    30.5220 ca         1 GGI      -0.104000
     20 C27         22.2320   -17.1270    28.0150 c3         1 GGI       0.151500
     21 C28         21.4090   -17.1370    26.7010 c3         1 GGI      -0.013100
     22 C29         20.2630   -18.1450    26.7020 ca         1 GGI      -0.118300
     23 C30         20.4790   -19.4550    26.2400 ca         1 GGI      -0.071000
     24 C31         19.4420   -20.3990    26.2840 ca         1 GGI      -0.153500
     25 C32         18.1740   -20.0510    26.7810 ca         1 GGI      -0.009000
     26 C34         15.8860   -21.1130    27.2870 c          1 GGI       0.598100
     27 C35         15.3450   -22.5640    27.4050 c3         1 GGI       0.093800
     28 C37         15.8970   -25.0070    27.6790 c6         1 GGI       0.177800
     29 C38         17.0380   -26.0180    28.0300 c6         1 GGI       0.171800
     30 C40         18.6060   -26.8070    29.8400 c3         1 GGI       0.190800
     31 C41         19.9020   -26.9180    29.0000 c3         1 GGI      -0.203400
     32 C42         17.9910   -24.3710    29.6090 c6         1 GGI       0.171800
     33 C43         16.8370   -23.3840    29.2540 c6         1 GGI       0.177800
     34 C45         17.9490   -18.7290    27.2200 ca         1 GGI      -0.153500
     35 C46         18.9880   -17.7830    27.1770 ca         1 GGI      -0.071000
     36 C49         23.7230   -16.3850    30.4400 ca         1 GGI      -0.307500
     37 C50         24.5070   -17.4940    30.8290 ca         1 GGI      -0.010500
     38 C51         25.9000   -17.4660    30.6480 ca         1 GGI      -0.122500
     39 C52         26.5160   -16.3360    30.0880 ca         1 GGI      -0.049000
     40 C53         25.7410   -15.2260    29.7140 ca         1 GGI      -0.122500
     41 C54         24.3480   -15.2440    29.8950 ca         1 GGI      -0.010500
     42 N03         24.2310   -18.5630    27.6400 ns         1 GGI      -0.469900
     43 N10         21.1370   -24.9840    28.1210 ns         1 GGI      -0.157000
     44 N16         27.6510   -19.8740    28.1500 ns         1 GGI      -0.501900
     45 N23         32.1560   -15.8830    32.5750 n8         1 GGI      -0.998200
     46 N33         17.2060   -21.0820    26.8660 ns         1 GGI      -0.145000
     47 N36         16.3440   -23.5920    27.8540 n3         1 GGI      -0.782600
     48 N39         17.6000   -25.8010    29.4040 n3         1 GGI      -0.738600
     49 N47         21.3370   -16.7200    29.1470 n7         1 GGI      -0.866300
     50 O01         22.5250   -19.4100    28.8960 o          1 GGI      -0.600100
     51 O12         21.4270   -25.6180    30.3280 o          1 GGI      -0.579100
     52 O26         26.8730   -18.0440    27.0380 o          1 GGI      -0.590100
     53 O44         15.2160   -20.1230    27.5710 o          1 GGI      -0.586100
     54 O55         21.5610   -17.5740    31.4690 o          1 GGI      -0.540000
     55 O56         21.4680   -15.0550    30.9990 o          1 GGI      -0.540000
     56 S48         21.9360   -16.4040    30.6750 sy         1 GGI       1.156600
     57 H041        25.1520   -20.0320    28.8410 h1         1 GGI       0.089700
     58 H051        25.8920   -21.3880    26.6770 hc         1 GGI       0.060700
     59 H052        24.7300   -20.4100    25.8250 hc         1 GGI       0.060700
     60 H071        24.7310   -22.2370    29.1850 ha         1 GGI       0.111500
     61 H081        23.1420   -24.0000    29.7690 ha         1 GGI       0.127500
     62 H131        21.2320   -23.5610    25.9070 ha         1 GGI       0.127500
     63 H141        22.8390   -21.7790    25.3260 ha         1 GGI       0.111500
     64 H172        29.6530   -20.4780    28.1770 h1         1 GGI       0.062700
     65 H171        29.2990   -19.1320    27.0830 h1         1 GGI       0.062700
     66 H191        30.1460   -17.0320    27.7790 ha         1 GGI       0.114000
     67 H201        30.8480   -15.4490    29.5530 ha         1 GGI       0.119500
     68 H222        30.4900   -14.7550    31.9570 h1         1 GGI       0.034200
     69 H221        30.1470   -15.9850    33.1950 h1         1 GGI       0.034200
     70 H241        29.6570   -18.3040    32.5720 ha         1 GGI       0.119500
     71 H251        28.9670   -19.8920    30.8000 ha         1 GGI       0.114000
     72 H271        23.0110   -16.3660    27.8740 h1         1 GGI       0.081700
     73 H281        21.0160   -16.1280    26.5270 hc         1 GGI       0.057700
     74 H282        22.0850   -17.3390    25.8610 hc         1 GGI       0.057700
     75 H301        21.4570   -19.7480    25.8660 ha         1 GGI       0.118000
     76 H311        19.6340   -21.4150    25.9460 ha         1 GGI       0.126500
     77 H351        14.9720   -22.8250    26.4060 h1         1 GGI       0.068200
     78 H352        14.4800   -22.5420    28.0820 h1         1 GGI       0.068200
     79 H371        15.5790   -25.1840    26.6420 h1         1 GGI       0.046200
     80 H372        15.0290   -25.2140    28.3230 h1         1 GGI       0.046200
     81 H381        17.8270   -25.9050    27.2740 h1         1 GGI       0.039200
     82 H382        16.6440   -27.0410    27.9360 h1         1 GGI       0.039200
     83 H401        18.1280   -27.7960    29.8270 h1         1 GGI       0.066700
     84 H402        18.8830   -26.6240    30.8880 h1         1 GGI       0.066700
     85 H411        19.6570   -27.0040    27.9360 hc         1 GGI       0.065200
     86 H412        20.4030   -27.8420    29.3100 hc         1 GGI       0.065200
     87 H422        18.2940   -24.2020    30.6530 h1         1 GGI       0.039200
     88 H421        18.8460   -24.1090    28.9750 h1         1 GGI       0.039200
     89 H431        17.2090   -22.3590    29.3900 h1         1 GGI       0.046200
     90 H432        16.0160   -23.5260    29.9720 h1         1 GGI       0.046200
     91 H451        16.9860   -18.4230    27.6170 ha         1 GGI       0.126500
     92 H461        18.8060   -16.7700    27.5320 ha         1 GGI       0.118000
     93 H501        24.0430   -18.3790    31.2630 ha         1 GGI       0.130500
     94 H511        26.5020   -18.3220    30.9430 ha         1 GGI       0.116500
     95 H521        27.5930   -16.3180    29.9470 ha         1 GGI       0.118000
     96 H531        26.2210   -14.3500    29.2850 ha         1 GGI       0.116500
     97 H541        23.7570   -14.3770    29.6030 ha         1 GGI       0.130500
     98 H031        24.5460   -17.7420    27.1340 hn         1 GGI       0.321500
     99 H101        20.5900   -25.2390    27.3090 hn         1 GGI       0.152000
    100 H161        27.3800   -20.7320    28.6150 hn         1 GGI       0.315500
    101 H231        32.3720   -15.2780    33.3760 hn         1 GGI       0.397000
    102 H232        32.3500   -16.8290    32.9240 hn         1 GGI       0.397000
    103 H331        17.5750   -22.0060    26.6730 hn         1 GGI       0.179000
    104 H471        20.7320   -17.5110    29.3710 hn         1 GGI       0.507000
@<TRIPOS>BOND
     1     1    20 1   
     2     1    42 1   
     3     1    50 2   
     4     2     3 1   
     5     2    11 1   
     6     2    42 1   
     7     2    57 1   
     8     3     4 1   
     9     3    58 1   
    10     3    59 1   
    11     4     5 ar  
    12     4    10 ar  
    13     5     6 ar  
    14     5    60 1   
    15     6     7 ar  
    16     6    61 1   
    17     7     9 ar  
    18     7    43 1   
    19     8    31 1   
    20     8    43 1   
    21     8    51 2   
    22     9    10 ar  
    23     9    62 1   
    24    10    63 1   
    25    11    44 1   
    26    11    52 2   
    27    12    13 1   
    28    12    44 1   
    29    12    64 1   
    30    12    65 1   
    31    13    14 ar  
    32    13    19 ar  
    33    14    15 ar  
    34    14    66 1   
    35    15    16 ar  
    36    15    67 1   
    37    16    17 1   
    38    16    18 ar  
    39    17    45 1   
    40    17    68 1   
    41    17    69 1   
    42    18    19 ar  
    43    18    70 1   
    44    19    71 1   
    45    20    21 1   
    46    20    49 1   
    47    20    72 1   
    48    21    22 1   
    49    21    73 1   
    50    21    74 1   
    51    22    23 ar  
    52    22    35 ar  
    53    23    24 ar  
    54    23    75 1   
    55    24    25 ar  
    56    24    76 1   
    57    25    34 ar  
    58    25    46 1   
    59    26    27 1   
    60    26    46 1   
    61    26    53 2   
    62    27    47 1   
    63    27    77 1   
    64    27    78 1   
    65    28    29 1   
    66    28    47 1   
    67    28    79 1   
    68    28    80 1   
    69    29    48 1   
    70    29    81 1   
    71    29    82 1   
    72    30    31 1   
    73    30    48 1   
    74    30    83 1   
    75    30    84 1   
    76    31    85 1   
    77    31    86 1   
    78    32    33 1   
    79    32    48 1   
    80    32    87 1   
    81    32    88 1   
    82    33    47 1   
    83    33    89 1   
    84    33    90 1   
    85    34    35 ar  
    86    34    91 1   
    87    35    92 1   
    88    36    37 ar  
    89    36    41 ar  
    90    36    56 1   
    91    37    38 ar  
    92    37    93 1   
    93    38    39 ar  
    94    38    94 1   
    95    39    40 ar  
    96    39    95 1   
    97    40    41 ar  
    98    40    96 1   
    99    41    97 1   
   100    42    98 1   
   101    43    99 1   
   102    44   100 1   
   103    45   101 1   
   104    45   102 1   
   105    46   103 1   
   106    49    56 1   
   107    49   104 1   
   108    54    56 2   
   109    55    56 2   
@<TRIPOS>SUBSTRUCTURE
     1 GGI         1 TEMP              0 ****  ****    0 ROOT
