@<TRIPOS>MOLECULE
GGJ
   47    50     1     0     0
SMALL
bcc


@<TRIPOS>ATOM
      1 O1          -5.4210    -3.1690    -0.1960 os         1 GGJ      -0.318900
      2 C1          -4.8930    -4.4210    -0.5890 c3         1 GGJ       0.125700
      3 C2          -4.6100    -2.0950    -0.2130 ca         1 GGJ       0.145100
      4 C3          -5.1800    -0.8810     0.1760 ca         1 GGJ      -0.198000
      5 C4          -4.4200     0.2720     0.1910 ca         1 GGJ      -0.066500
      6 C5          -3.0720     0.2590    -0.1780 ca         1 GGJ      -0.164500
      7 C6          -2.5200    -0.9560    -0.5700 ca         1 GGJ      -0.066500
      8 C7          -3.2690    -2.1250    -0.5880 ca         1 GGJ      -0.198000
      9 C8          -2.2890     1.4990    -0.1850 cc         1 GGJ       0.424800
     10 C9          -0.9130     1.6800     0.1150 cc         1 GGJ      -0.281300
     11 C10         -0.7040     3.0410    -0.0790 cd         1 GGJ       0.142300
     12 N11         -1.8870     3.5550    -0.4510 na         1 GGJ      -0.039600
     13 N12         -2.8620     2.6360    -0.5260 nd         1 GGJ      -0.522800
     14 C13          0.0780     0.7170     0.6020 ca         1 GGJ       0.012000
     15 C14          1.3550     0.6700     0.0420 ca         1 GGJ      -0.127000
     16 C15          2.3290    -0.2170     0.5010 cp         1 GGJ      -0.036000
     17 C16          1.9990    -1.0860     1.5410 ca         1 GGJ      -0.124000
     18 C17          0.7320    -1.0530     2.1060 ca         1 GGJ      -0.132000
     19 C18         -0.2210    -0.1570     1.6500 ca         1 GGJ      -0.117000
     20 C19          3.6750    -0.2400    -0.1130 cp         1 GGJ       0.005000
     21 C20          4.7950    -0.5010     0.6710 ca         1 GGJ      -0.187000
     22 C21          6.0800    -0.5390     0.1220 ca         1 GGJ       0.146600
     23 C22          6.2260    -0.3010    -1.2500 ca         1 GGJ      -0.193000
     24 C23          5.1130    -0.0380    -2.0310 ca         1 GGJ      -0.091000
     25 C24          3.8400    -0.0050    -1.4800 ca         1 GGJ      -0.161000
     26 N25          7.1810    -0.7480     0.9270 nv         1 GGJ      -0.822200
     27 N1           0.4360     3.7950     0.0190 nv         1 GGJ      -0.801200
     28 H1          -5.7040    -5.1390    -0.5020 h1         1 GGJ       0.040367
     29 H2          -4.5420    -4.4090    -1.6240 h1         1 GGJ       0.040367
     30 H3          -4.0710    -4.7390     0.0580 h1         1 GGJ       0.040367
     31 H4          -6.2220    -0.8510     0.4700 ha         1 GGJ       0.139500
     32 H5          -4.8790     1.2020     0.5030 ha         1 GGJ       0.141500
     33 H6          -1.4850    -1.0050    -0.8830 ha         1 GGJ       0.141500
     34 H7          -2.7920    -3.0430    -0.9050 ha         1 GGJ       0.139500
     35 H8          -2.0890     4.5160    -0.6740 hn         1 GGJ       0.320700
     36 H9           1.5940     1.3410    -0.7750 ha         1 GGJ       0.140000
     37 H10          2.7240    -1.8040     1.9020 ha         1 GGJ       0.130000
     38 H11          0.4890    -1.7320     2.9130 ha         1 GGJ       0.130000
     39 H12         -1.2010    -0.1310     2.1080 ha         1 GGJ       0.140000
     40 H13          4.6790    -0.6610     1.7380 ha         1 GGJ       0.130000
     41 H14          7.2130    -0.3230    -1.6990 ha         1 GGJ       0.129000
     42 H15          5.2410     0.1320    -3.0920 ha         1 GGJ       0.128000
     43 H16          2.9820     0.1750    -2.1140 ha         1 GGJ       0.136000
     44 H17          7.0040    -1.2560     1.7790 hn         1 GGJ       0.389800
     45 H18          8.0020    -1.0930     0.4570 hn         1 GGJ       0.389800
     46 H19          0.2920     4.7620     0.2700 hn         1 GGJ       0.400300
     47 H20          1.1500     3.3810     0.6000 hn         1 GGJ       0.400300
@<TRIPOS>BOND
     1     1     2 1   
     2     1     3 1   
     3     2    28 1   
     4     2    29 1   
     5     2    30 1   
     6     3     4 ar  
     7     3     8 ar  
     8     4     5 ar  
     9     4    31 1   
    10     5     6 ar  
    11     5    32 1   
    12     6     7 ar  
    13     6     9 1   
    14     7     8 ar  
    15     7    33 1   
    16     8    34 1   
    17     9    10 1   
    18     9    13 2   
    19    10    11 2   
    20    10    14 1   
    21    11    12 1   
    22    11    27 1   
    23    12    13 1   
    24    12    35 1   
    25    14    15 ar  
    26    14    19 ar  
    27    15    16 ar  
    28    15    36 1   
    29    16    17 ar  
    30    16    20 1   
    31    17    18 ar  
    32    17    37 1   
    33    18    19 ar  
    34    18    38 1   
    35    19    39 1   
    36    20    21 ar  
    37    20    25 ar  
    38    21    22 ar  
    39    21    40 1   
    40    22    23 ar  
    41    22    26 1   
    42    23    24 ar  
    43    23    41 1   
    44    24    25 ar  
    45    24    42 1   
    46    25    43 1   
    47    26    44 1   
    48    26    45 1   
    49    27    46 1   
    50    27    47 1   
@<TRIPOS>SUBSTRUCTURE
     1 GGJ         1 TEMP              0 ****  ****    0 ROOT
