@<TRIPOS>MOLECULE
GGJ
   47    50     1     0     0
SMALL
No Charge or Current Charge


@<TRIPOS>ATOM
      1 O1          -5.5780    -3.1770    -0.2020 os         1 GGJ      -0.342100
      2 C1          -5.0780    -4.4920    -0.5080 c3         1 GGJ       0.148900
      3 C2          -4.7590    -2.0670    -0.1790 ca         1 GGJ       0.145100
      4 C3          -5.3400    -0.8290     0.1280 ca         1 GGJ      -0.180000
      5 C4          -4.5570     0.3380     0.1660 ca         1 GGJ      -0.048500
      6 C5          -3.1650     0.2840    -0.0750 ca         1 GGJ      -0.164500
      7 C6          -2.5980    -0.9620    -0.4270 ca         1 GGJ      -0.048500
      8 C7          -3.3810    -2.1290    -0.4670 ca         1 GGJ      -0.180000
      9 C8          -2.3630     1.5260    -0.0750 cc         1 GGJ       0.359500
     10 C9          -0.9450     1.6200    -0.0000 cc         1 GGJ      -0.216000
     11 C10         -0.6560     2.9460    -0.1330 cd         1 GGJ       0.230000
     12 N11         -1.8740     3.5820    -0.3450 na         1 GGJ      -0.039200
     13 N12         -2.9460     2.6940    -0.3060 nd         1 GGJ      -0.522800
     14 C13          0.0670     0.6640     0.4800 ca         1 GGJ       0.012000
     15 C14          1.3830     0.6740    -0.0320 ca         1 GGJ      -0.109000
     16 C15          2.3720    -0.2320     0.4280 cp         1 GGJ      -0.036000
     17 C16          2.0040    -1.1590     1.4330 ca         1 GGJ      -0.106000
     18 C17          0.7010    -1.1790     1.9540 ca         1 GGJ      -0.114000
     19 C18         -0.2600    -0.2730     1.4810 ca         1 GGJ      -0.099000
     20 C19          3.7600    -0.2160    -0.1360 cp         1 GGJ       0.005000
     21 C20          4.8870    -0.4920     0.6800 ca         1 GGJ      -0.169000
     22 C21          6.1870    -0.4770     0.1550 ca         1 GGJ       0.285000
     23 C22          6.3910    -0.1860    -1.2000 ca         1 GGJ      -0.175000
     24 C23          5.2950     0.0900    -2.0330 ca         1 GGJ      -0.073000
     25 C24          3.9930     0.0750    -1.5040 ca         1 GGJ      -0.143000
     26 N25          7.2580    -0.7430     0.9650 nv         1 GGJ      -1.071000
     27 N1           0.5070     3.6540     0.0160 nv         1 GGJ      -1.050000
     28 H1          -5.8920    -5.2270    -0.4660 h1         1 GGJ       0.040367
     29 H2          -4.6460    -4.5200    -1.5160 h1         1 GGJ       0.040367
     30 H3          -4.3100    -4.7940     0.2150 h1         1 GGJ       0.040367
     31 H4          -6.4050    -0.7710     0.3360 ha         1 GGJ       0.121500
     32 H5          -5.0390     1.2830     0.4070 ha         1 GGJ       0.123500
     33 H6          -1.5500    -1.0370    -0.7030 ha         1 GGJ       0.123500
     34 H7          -2.9030    -3.0660    -0.7350 ha         1 GGJ       0.121500
     35 H8          -2.0060     4.5790    -0.4890 hn         1 GGJ       0.371000
     36 H9           1.6410     1.3830    -0.8130 ha         1 GGJ       0.122000
     37 H10          2.7300    -1.8790     1.8030 ha         1 GGJ       0.112000
     38 H11          0.4360    -1.8970     2.7270 ha         1 GGJ       0.112000
     39 H12         -1.2580    -0.2880     1.9110 ha         1 GGJ       0.122000
     40 H13          4.7450    -0.7050     1.7350 ha         1 GGJ       0.112000
     41 H14          7.3970    -0.1730    -1.6120 ha         1 GGJ       0.111000
     42 H15          5.4530     0.3120    -3.0860 ha         1 GGJ       0.110000
     43 H16          3.1560     0.2770    -2.1680 ha         1 GGJ       0.118000
     44 H17          7.1060    -1.0860     1.9110 hn         1 GGJ       0.445000
     45 H18          8.1840    -0.8650     0.5600 hn         1 GGJ       0.445000
     46 H19          0.4910     4.6720     0.0730 hn         1 GGJ       0.455500
     47 H20          1.3290     3.1850     0.3910 hn         1 GGJ       0.455500
@<TRIPOS>BOND
     1     1     2 1   
     2     1     3 1   
     3     2    28 1   
     4     2    29 1   
     5     2    30 1   
     6     3     4 ar  
     7     3     8 ar  
     8     4     5 ar  
     9     4    31 1   
    10     5     6 ar  
    11     5    32 1   
    12     6     7 ar  
    13     6     9 1   
    14     7     8 ar  
    15     7    33 1   
    16     8    34 1   
    17     9    10 1   
    18     9    13 2   
    19    10    11 2   
    20    10    14 1   
    21    11    12 1   
    22    11    27 1   
    23    12    13 1   
    24    12    35 1   
    25    14    15 ar  
    26    14    19 ar  
    27    15    16 ar  
    28    15    36 1   
    29    16    17 ar  
    30    16    20 1   
    31    17    18 ar  
    32    17    37 1   
    33    18    19 ar  
    34    18    38 1   
    35    19    39 1   
    36    20    21 ar  
    37    20    25 ar  
    38    21    22 ar  
    39    21    40 1   
    40    22    23 ar  
    41    22    26 1   
    42    23    24 ar  
    43    23    41 1   
    44    24    25 ar  
    45    24    42 1   
    46    25    43 1   
    47    26    44 1   
    48    26    45 1   
    49    27    46 1   
    50    27    47 1   
@<TRIPOS>SUBSTRUCTURE
     1 GGJ         1 TEMP              0 ****  ****    0 ROOT
