@<TRIPOS>MOLECULE
GGK
   39    39     1     0     0
SMALL
No Charge or Current Charge


@<TRIPOS>ATOM
      1 C4          -2.7830    -0.5760     0.6080 cg         1 GGK      -0.103000
      2 C5          -1.3720    -0.8330     0.5890 ca         1 GGK       0.083000
      3 C6          -0.7680    -1.3700    -0.5620 ca         1 GGK      -0.109000
      4 C11          5.0600     0.1530    -0.0820 c3         1 GGK       0.204800
      5 C7           0.6140    -1.6220    -0.5840 ca         1 GGK      -0.018000
      6 C8           1.4020    -1.3390     0.5520 ca         1 GGK      -0.309500
      7 C9           0.7960    -0.7990     1.7060 ca         1 GGK      -0.018000
      8 C10         -0.5880    -0.5490     1.7210 ca         1 GGK      -0.109000
      9 C12          5.3170     1.4130    -0.9280 c3         1 GGK      -0.158400
     10 C13          6.7590     1.9470    -0.8240 c3         1 GGK       0.302000
     11 N1          -5.9190     0.1320    -0.7070 n7         1 GGK      -0.864300
     12 N2           3.6710    -0.2830    -0.2800 n7         1 GGK      -0.868300
     13 C3          -3.9800    -0.3640     0.6160 c1         1 GGK      -0.112100
     14 C1          -7.5330     2.2420    -0.2630 c3         1 GGK      -0.389100
     15 S1          -7.5080     0.5790    -0.9070 s6         1 GGK       1.192100
     16 O1          -7.7450     0.6000    -2.3500 o          1 GGK      -0.521000
     17 O2          -8.3020    -0.2930    -0.0390 o          1 GGK      -0.521000
     18 C2          -5.4160    -0.0740     0.6570 c3         1 GGK       0.289900
     19 S2           3.1700    -1.6590     0.5170 sy         1 GGK       1.154600
     20 O3           3.7150    -1.5790     1.8740 o          1 GGK      -0.525000
     21 O4           3.4460    -2.7730    -0.3940 o          1 GGK      -0.525000
     22 F1           7.6530     1.0230    -1.2440 f          1 GGK      -0.115000
     23 F2           6.9130     3.0500    -1.5900 f          1 GGK      -0.115000
     24 F3           7.0650     2.2800     0.4500 f          1 GGK      -0.115000
     25 H1          -1.3690    -1.5900    -1.4410 ha         1 GGK       0.129000
     26 H2           5.7590    -0.6380    -0.3930 h1         1 GGK       0.067700
     27 H3           5.2600     0.3770     0.9760 h1         1 GGK       0.067700
     28 H4           1.0690    -2.0340    -1.4850 ha         1 GGK       0.139500
     29 H5           1.3860    -0.5720     2.5930 ha         1 GGK       0.139500
     30 H6          -1.0490    -0.1330     2.6140 ha         1 GGK       0.129000
     31 H7           5.0990     1.1880    -1.9790 hc         1 GGK       0.090200
     32 H8           4.6250     2.2060    -0.6210 hc         1 GGK       0.090200
     33 H9          -5.4370     0.9380    -1.0980 hn         1 GGK       0.482000
     34 H10          3.0230     0.4130     0.0840 hn         1 GGK       0.480000
     35 H11         -6.8140     2.8410    -0.8310 h1         1 GGK       0.102367
     36 H12         -8.5500     2.6230    -0.4010 h1         1 GGK       0.102367
     37 H13         -7.2780     2.2040     0.8000 h1         1 GGK       0.102367
     38 H14         -5.5690     0.8130     1.2890 h1         1 GGK       0.073200
     39 H15         -5.9260    -0.9180     1.1420 h1         1 GGK       0.073200
@<TRIPOS>BOND
     1     1     2 1   
     2     1    13 3   
     3     2     3 ar  
     4     2     8 ar  
     5     3     5 ar  
     6     3    25 1   
     7     4     9 1   
     8     4    12 1   
     9     4    26 1   
    10     4    27 1   
    11     5     6 ar  
    12     5    28 1   
    13     6     7 ar  
    14     6    19 1   
    15     7     8 ar  
    16     7    29 1   
    17     8    30 1   
    18     9    10 1   
    19     9    31 1   
    20     9    32 1   
    21    10    22 1   
    22    10    23 1   
    23    10    24 1   
    24    11    15 1   
    25    11    18 1   
    26    11    33 1   
    27    12    19 1   
    28    12    34 1   
    29    13    18 1   
    30    14    15 1   
    31    14    35 1   
    32    14    36 1   
    33    14    37 1   
    34    15    16 2   
    35    15    17 2   
    36    18    38 1   
    37    18    39 1   
    38    19    20 2   
    39    19    21 2   
@<TRIPOS>SUBSTRUCTURE
     1 GGK         1 TEMP              0 ****  ****    0 ROOT
