@<TRIPOS>MOLECULE
GGK
   39    39     1     0     0
SMALL
bcc


@<TRIPOS>ATOM
      1 C4          -2.3170    -0.3570     0.7290 cg         1 GGK      -0.103000
      2 C5          -0.9890    -0.8490     0.5740 ca         1 GGK       0.083000
      3 C6          -0.6280    -1.5090    -0.6050 ca         1 GGK      -0.127000
      4 C11          4.1830     0.2350    -0.0950 c3         1 GGK       0.204800
      5 C7           0.6640    -1.9670    -0.7800 ca         1 GGK      -0.036000
      6 C8           1.5980    -1.7700     0.2300 ca         1 GGK      -0.309500
      7 C9           1.2540    -1.1310     1.4140 ca         1 GGK      -0.036000
      8 C10         -0.0410    -0.6690     1.5820 ca         1 GGK      -0.127000
      9 C12          5.0860     1.1290    -0.9360 c3         1 GGK      -0.158400
     10 C13          5.3630     2.4560    -0.2830 c3         1 GGK       0.665900
     11 N1          -5.4770     0.4020    -0.3420 n7         1 GGK      -0.809100
     12 N2           4.0220    -1.0300    -0.8020 n7         1 GGK      -0.813100
     13 C3          -3.4380     0.0670     0.8340 c1         1 GGK      -0.112100
     14 C1          -7.3390     2.4330    -0.2340 c3         1 GGK      -0.278300
     15 S1          -7.1040     0.6810    -0.4220 s6         1 GGK       1.222900
     16 O1          -7.5100     0.3050    -1.7660 o          1 GGK      -0.591800
     17 O2          -7.7030     0.0160     0.7240 o          1 GGK      -0.591800
     18 C2          -4.7850     0.6090     0.9290 c3         1 GGK       0.289900
     19 S2           3.2740    -2.2830    -0.0380 sy         1 GGK       1.296200
     20 O3           3.9110    -2.4320     1.2580 o          1 GGK      -0.595800
     21 O4           3.2660    -3.3830    -0.9850 o          1 GGK      -0.595800
     22 F1           5.9840     2.3230     0.8990 f          1 GGK      -0.236300
     23 F2           6.1480     3.2260    -1.0490 f          1 GGK      -0.236300
     24 F3           4.2430     3.1560    -0.0490 f          1 GGK      -0.236300
     25 H1          -1.3620    -1.6610    -1.3840 ha         1 GGK       0.147000
     26 H2           4.6470     0.0300     0.8680 h1         1 GGK       0.067700
     27 H3           3.2210     0.7230     0.0880 h1         1 GGK       0.067700
     28 H4           0.9310    -2.4760    -1.6960 ha         1 GGK       0.157500
     29 H5           1.9770    -0.9940     2.2060 ha         1 GGK       0.157500
     30 H6          -0.3160    -0.1670     2.4990 ha         1 GGK       0.147000
     31 H7           6.0380     0.6280    -1.1170 hc         1 GGK       0.090200
     32 H8           4.6260     1.3230    -1.9080 hc         1 GGK       0.090200
     33 H9          -4.9870     0.7900    -1.1410 hn         1 GGK       0.426800
     34 H10          3.6950    -0.9300    -1.7590 hn         1 GGK       0.424800
     35 H11         -6.8250     2.9500    -1.0400 h1         1 GGK       0.102367
     36 H12         -8.4080     2.6350    -0.2820 h1         1 GGK       0.102367
     37 H13         -6.9500     2.7540     0.7310 h1         1 GGK       0.102367
     38 H14         -4.7250     1.6660     1.2120 h1         1 GGK       0.073200
     39 H15         -5.3310     0.0920     1.7190 h1         1 GGK       0.073200
@<TRIPOS>BOND
     1     1     2 1   
     2     1    13 3   
     3     2     3 ar  
     4     2     8 ar  
     5     3     5 ar  
     6     3    25 1   
     7     4     9 1   
     8     4    12 1   
     9     4    26 1   
    10     4    27 1   
    11     5     6 ar  
    12     5    28 1   
    13     6     7 ar  
    14     6    19 1   
    15     7     8 ar  
    16     7    29 1   
    17     8    30 1   
    18     9    10 1   
    19     9    31 1   
    20     9    32 1   
    21    10    22 1   
    22    10    23 1   
    23    10    24 1   
    24    11    15 1   
    25    11    18 1   
    26    11    33 1   
    27    12    19 1   
    28    12    34 1   
    29    13    18 1   
    30    14    15 1   
    31    14    35 1   
    32    14    36 1   
    33    14    37 1   
    34    15    16 2   
    35    15    17 2   
    36    18    38 1   
    37    18    39 1   
    38    19    20 2   
    39    19    21 2   
@<TRIPOS>SUBSTRUCTURE
     1 GGK         1 TEMP              0 ****  ****    0 ROOT
