@<TRIPOS>MOLECULE
GGM
   62    65     1     0     0
SMALL
No Charge or Current Charge


@<TRIPOS>ATOM
      1 N1          -3.8020     4.8710     1.7990 ns         1 GGM      -0.458400
      2 C2          -4.2870     3.7200     1.2810 cc         1 GGM       0.681800
      3 N2          -5.5660     3.7290     0.9580 nv         1 GGM      -1.077200
      4 N3          -3.6280     2.6040     1.0540 nd         1 GGM      -0.704100
      5 C4          -2.2810     2.6890     1.4220 cd         1 GGM       0.078400
      6 C5          -1.7020     3.8110     1.9550 cc         1 GGM       0.167500
      7 C6          -2.5050     5.0390     2.1800 c          1 GGM       0.523500
      8 O6          -2.0980     6.0940     2.6500 o          1 GGM      -0.509000
      9 N7          -0.3700     3.5940     2.2160 nc         1 GGM      -0.571000
     10 C8          -0.1390     2.3330     1.8410 cd         1 GGM       0.490400
     11 N9          -1.2940     1.7320     1.3420 na         1 GGM      -0.165500
     12 CA          -3.7680    -2.5920    -0.4850 c          1 GGM       0.628700
     13 OA          -3.9890    -2.4960    -1.6890 o          1 GGM      -0.559000
     14 PA           3.4780    -1.9130    -1.2050 p5         1 GGM       1.473800
     15 PG           5.8130     2.2250    -1.2900 p5         1 GGM       1.302800
     16 C1          -1.4290     0.3520     0.8790 c5         1 GGM       0.290300
     17 O1A          3.2760    -2.6380    -2.4940 o          1 GGM      -0.871000
     18 O1B          3.8520     0.1100    -3.8190 o          1 GGM      -0.912000
     19 O1G          6.9590     2.3210    -2.2300 o          1 GGM      -0.873500
     20 C7          -2.0490     0.1460    -0.5330 c5         1 GGM       0.099300
     21 O2          -3.4530     0.4810    -0.6340 oh         1 GGM      -0.749000
     22 O2A          4.5320    -2.5430    -0.3540 o          1 GGM      -0.871000
     23 O2B          5.9150    -0.5660    -2.5600 o          1 GGM      -0.912000
     24 O2G          5.3230     3.5770    -0.9280 o          1 GGM      -0.873500
     25 C3          -1.7070    -1.3730    -0.7240 c5         1 GGM       0.133300
     26 O3          -2.5900    -2.1920     0.1060 os         1 GGM      -0.439100
     27 O3A          3.6490    -0.3450    -1.3050 os         1 GGM      -0.727800
     28 N3B          4.5710     1.5600    -1.9990 n7         1 GGM      -0.993600
     29 O3G          6.0880     1.4360    -0.0680 o          1 GGM      -0.873500
     30 C9          -0.2860    -1.4650    -0.0610 c5         1 GGM       0.161300
     31 O4          -0.1320    -0.2440     0.7170 os         1 GGM      -0.432000
     32 C10          0.8750    -1.5750    -1.0850 c3         1 GGM       0.183600
     33 O5           2.0910    -1.8880    -0.3850 os         1 GGM      -0.602400
     34 CA1         -4.6790    -3.3370     0.4670 ca         1 GGM      -0.247600
     35 CA2         -6.0090    -3.6730     0.1180 ca         1 GGM       0.377000
     36 CA3         -6.8260    -4.3620     1.0350 ca         1 GGM      -0.242000
     37 CA4         -6.3440    -4.7180     2.3020 ca         1 GGM      -0.131000
     38 CA5         -5.0330    -4.3850     2.6580 ca         1 GGM      -0.193000
     39 CA6         -4.2050    -3.7020     1.7530 ca         1 GGM      -0.020000
     40 CAM         -7.9050    -2.8930    -1.3970 c3         1 GGM       0.241100
     41 HN1         -4.4230     5.6520     1.9350 hn         1 GGM       0.283500
     42 HN2         -5.9780     4.6260     0.7320 hn         1 GGM       0.471500
     43 HN2A        -5.8710     2.9450     0.3950 hn         1 GGM       0.471500
     44 H8           0.8050     1.8040     1.9060 h5         1 GGM       0.105100
     45 H1          -1.9990    -0.1860     1.6460 h2         1 GGM       0.040700
     46 H2          -1.4670     0.7430    -1.2540 h1         1 GGM       0.157700
     47 HO2         -3.5900     1.2720    -0.0290 ho         1 GGM       0.539000
     48 H3          -1.7000    -1.7090    -1.7700 h1         1 GGM       0.095700
     49 HN3B         4.2180     1.2060    -1.1260 hn         1 GGM       0.422000
     50 H4          -0.2330    -2.3270     0.6180 h1         1 GGM       0.058700
     51 H5           0.6350    -2.3700    -1.8040 h1         1 GGM       0.055700
     52 H5'A         0.9630    -0.6300    -1.6370 h1         1 GGM       0.055700
     53 HNA1        -5.8120    -2.9370    -1.7410 hn         1 GGM       0.535000
     54 HA3         -7.8430    -4.6320     0.7690 ha         1 GGM       0.074000
     55 HA4         -6.9840    -5.2510     3.0020 ha         1 GGM       0.065000
     56 HA5         -4.6520    -4.6590     3.6390 ha         1 GGM       0.088000
     57 HA6         -3.1900    -3.4650     2.0660 ha         1 GGM       0.133000
     58 HAM         -8.6260    -3.6850    -1.1580 h1         1 GGM       0.010700
     59 HAMA        -8.1420    -2.0050    -0.7960 h1         1 GGM       0.010700
     60 HAMB        -8.0140    -2.6360    -2.4590 h1         1 GGM       0.010700
     61 NA1         -6.5330    -3.3390    -1.1270 nu         1 GGM      -0.992200
     62 PB           4.5640     0.0590    -2.5100 p5         1 GGM       1.480700
@<TRIPOS>BOND
     1     1     2 1   
     2     1     7 1   
     3     1    41 1   
     4     2     3 1   
     5     2     4 2   
     6     3    42 1   
     7     3    43 1   
     8     4     5 1   
     9     5     6 2   
    10     5    11 1   
    11     6     7 1   
    12     6     9 1   
    13     7     8 2   
    14     9    10 2   
    15    10    11 1   
    16    10    44 1   
    17    11    16 1   
    18    12    13 2   
    19    12    26 1   
    20    12    34 1   
    21    14    17 1   
    22    14    22 1   
    23    14    27 1   
    24    14    33 1   
    25    15    19 1   
    26    15    24 1   
    27    15    28 1   
    28    15    29 1   
    29    16    20 1   
    30    16    31 1   
    31    16    45 1   
    32    18    62 1   
    33    20    21 1   
    34    20    25 1   
    35    20    46 1   
    36    21    47 1   
    37    23    62 1   
    38    25    26 1   
    39    25    30 1   
    40    25    48 1   
    41    27    62 1   
    42    28    49 1   
    43    28    62 1   
    44    30    31 1   
    45    30    32 1   
    46    30    50 1   
    47    32    33 1   
    48    32    51 1   
    49    32    52 1   
    50    34    35 ar  
    51    34    39 ar  
    52    35    36 ar  
    53    35    61 1   
    54    36    37 ar  
    55    36    54 1   
    56    37    38 ar  
    57    37    55 1   
    58    38    39 ar  
    59    38    56 1   
    60    39    57 1   
    61    40    58 1   
    62    40    59 1   
    63    40    60 1   
    64    40    61 1   
    65    53    61 1   
@<TRIPOS>SUBSTRUCTURE
     1 GGM         1 TEMP              0 ****  ****    0 ROOT
