@<TRIPOS>MOLECULE
GGM
   62    65     1     0     0
SMALL
abcg2


@<TRIPOS>ATOM
      1 N1          -1.6010     4.7670     0.9970 ns         1 GGM      -0.458400
      2 C2          -2.5540     3.8410     0.6960 cc         1 GGM       0.681800
      3 N2          -3.7650     4.2960     0.3470 nv         1 GGM      -1.077200
      4 N3          -2.3340     2.5500     0.7690 nd         1 GGM      -0.704100
      5 C4          -1.0830     2.2450     1.1670 cd         1 GGM       0.078400
      6 C5          -0.0510     3.1030     1.4860 cc         1 GGM       0.167500
      7 C6          -0.2830     4.5050     1.4100 c          1 GGM       0.523500
      8 O6           0.4780     5.4270     1.6490 o          1 GGM      -0.509000
      9 N7           1.0710     2.3940     1.8210 nc         1 GGM      -0.571000
     10 C8           0.7250     1.1470     1.7000 cd         1 GGM       0.490400
     11 N9          -0.5820     0.9970     1.3260 na         1 GGM      -0.165500
     12 CA          -4.0010    -2.7720    -0.5080 c          1 GGM       0.628700
     13 OA          -4.1150    -2.6200    -1.7080 o          1 GGM      -0.559000
     14 PA           3.2580    -1.4100    -0.7080 p5         1 GGM       1.473800
     15 PG           4.5090     3.6410    -0.9230 p5         1 GGM       1.302800
     16 C1          -1.3470    -0.2290     1.1500 c5         1 GGM       0.290300
     17 O1A          3.2610    -1.8320    -2.1460 o          1 GGM      -0.871000
     18 O1B          0.9990     1.2640    -1.4770 o          1 GGM      -0.912000
     19 O1G          4.3500     4.5100    -2.1730 o          1 GGM      -0.873500
     20 C7          -1.9590    -0.3350    -0.2640 c5         1 GGM       0.099300
     21 O2          -3.2790     0.0970    -0.3410 oh         1 GGM      -0.749000
     22 O2A          4.3360    -1.8600     0.2330 o          1 GGM      -0.871000
     23 O2B          3.1710     1.3090    -2.8870 o          1 GGM      -0.912000
     24 O2G          4.5590     4.4490     0.3780 o          1 GGM      -0.873500
     25 C3          -1.8190    -1.8310    -0.5370 c5         1 GGM       0.133300
     26 O3          -2.8600    -2.5260     0.1360 os         1 GGM      -0.439100
     27 O3A          3.1340     0.1940    -0.5500 os         1 GGM      -0.727800
     28 N3B          2.9850     2.7700    -0.7410 n7         1 GGM      -0.993600
     29 O3G          5.6150     2.5950    -1.0450 o          1 GGM      -0.873500
     30 C9          -0.5090    -2.1500     0.1630 c5         1 GGM       0.161300
     31 O4          -0.5110    -1.3240     1.3290 os         1 GGM      -0.432000
     32 C10          0.6680    -1.8570    -0.7490 c3         1 GGM       0.183600
     33 O5           1.8610    -1.9590    -0.0080 os         1 GGM      -0.602400
     34 CA1         -5.0560    -3.2740     0.3810 ca         1 GGM      -0.247600
     35 CA2         -6.2880    -3.7530    -0.1510 ca         1 GGM       0.377000
     36 CA3         -7.2550    -4.2220     0.7670 ca         1 GGM      -0.242000
     37 CA4         -7.0230    -4.2070     2.1240 ca         1 GGM      -0.131000
     38 CA5         -5.8210    -3.7300     2.6440 ca         1 GGM      -0.193000
     39 CA6         -4.8590    -3.2740     1.7690 ca         1 GGM      -0.020000
     40 CAM         -7.7660    -4.2810    -2.0480 c3         1 GGM       0.241100
     41 HN1         -1.8480     5.7460     0.9220 hn         1 GGM       0.283500
     42 HN2         -3.8970     5.2560     0.0750 hn         1 GGM       0.471500
     43 HN2A        -4.4280     3.6350    -0.0190 hn         1 GGM       0.471500
     44 H8           1.3720     0.2980     1.8480 h5         1 GGM       0.105100
     45 H1          -2.1410    -0.2340     1.9070 h2         1 GGM       0.040700
     46 H2          -1.3050     0.2040    -0.9620 h1         1 GGM       0.157700
     47 HO2         -3.2690     1.0300    -0.0580 ho         1 GGM       0.539000
     48 H3          -1.7990    -2.0740    -1.6010 h1         1 GGM       0.095700
     49 HN3B         2.5220     2.9300     0.1440 hn         1 GGM       0.422000
     50 H4          -0.4720    -3.1880     0.5030 h1         1 GGM       0.058700
     51 H5           0.6420    -2.5910    -1.5640 h1         1 GGM       0.055700
     52 H5'A         0.5670    -0.8620    -1.1900 h1         1 GGM       0.055700
     53 HNA1        -5.8430    -3.4070    -2.0870 hn         1 GGM       0.535000
     54 HA3         -8.2010    -4.5970     0.4020 ha         1 GGM       0.074000
     55 HA4         -7.7950    -4.5720     2.7900 ha         1 GGM       0.065000
     56 HA5         -5.6450    -3.7140     3.7110 ha         1 GGM       0.088000
     57 HA6         -3.9280    -2.8980     2.1690 ha         1 GGM       0.133000
     58 HAM         -7.9360    -5.3330    -1.8050 h1         1 GGM       0.010700
     59 HAMA        -8.6460    -3.7150    -1.7290 h1         1 GGM       0.010700
     60 HAMB        -7.6910    -4.1960    -3.1290 h1         1 GGM       0.010700
     61 NA1         -6.5480    -3.7780    -1.4730 nu         1 GGM      -0.992200
     62 PB           2.5050     1.4010    -1.5460 p5         1 GGM       1.480700
@<TRIPOS>BOND
     1     1     2 1   
     2     1     7 1   
     3     1    41 1   
     4     2     3 1   
     5     2     4 2   
     6     3    42 1   
     7     3    43 1   
     8     4     5 1   
     9     5     6 2   
    10     5    11 1   
    11     6     7 1   
    12     6     9 1   
    13     7     8 2   
    14     9    10 2   
    15    10    11 1   
    16    10    44 1   
    17    11    16 1   
    18    12    13 2   
    19    12    26 1   
    20    12    34 1   
    21    14    17 1   
    22    14    22 1   
    23    14    27 1   
    24    14    33 1   
    25    15    19 1   
    26    15    24 1   
    27    15    28 1   
    28    15    29 1   
    29    16    20 1   
    30    16    31 1   
    31    16    45 1   
    32    18    62 1   
    33    20    21 1   
    34    20    25 1   
    35    20    46 1   
    36    21    47 1   
    37    23    62 1   
    38    25    26 1   
    39    25    30 1   
    40    25    48 1   
    41    27    62 1   
    42    28    49 1   
    43    28    62 1   
    44    30    31 1   
    45    30    32 1   
    46    30    50 1   
    47    32    33 1   
    48    32    51 1   
    49    32    52 1   
    50    34    35 ar  
    51    34    39 ar  
    52    35    36 ar  
    53    35    61 1   
    54    36    37 ar  
    55    36    54 1   
    56    37    38 ar  
    57    37    55 1   
    58    38    39 ar  
    59    38    56 1   
    60    39    57 1   
    61    40    58 1   
    62    40    59 1   
    63    40    60 1   
    64    40    61 1   
    65    53    61 1   
@<TRIPOS>SUBSTRUCTURE
     1 GGM         1 TEMP              0 ****  ****    0 ROOT
