@<TRIPOS>MOLECULE
GGN
   49    51     1     0     0
SMALL
abcg2


@<TRIPOS>ATOM
      1 C4           6.8220     1.3110     0.3610 ca         1 GGN       0.356300
      2 C14         -2.0380    -2.4960    -0.3690 ca         1 GGN      -0.076500
      3 C5           5.9050     0.2650     0.3650 ca         1 GGN      -0.153000
      4 C6           4.5450     0.5400     0.2670 ca         1 GGN      -0.092500
      5 C11          2.2950    -2.5900     0.3110 cc         1 GGN      -0.265000
      6 C7           4.1550     1.8730     0.1660 ca         1 GGN      -0.128000
      7 C8           5.1400     2.8440     0.1730 ca         1 GGN       0.336900
      8 C9           3.5370    -0.5200     0.2640 cc         1 GGN       0.479900
      9 C10          1.5430    -1.4590     0.1450 cd         1 GGN       0.344500
     10 C12          0.0850    -1.4030    -0.0110 ca         1 GGN      -0.095500
     11 C13         -0.6680    -2.5630    -0.2010 ca         1 GGN      -0.097000
     12 N1           6.4380     2.5820     0.2660 nb         1 GGN      -0.663000
     13 N2           2.2680    -0.3050     0.1270 nd         1 GGN      -0.637000
     14 C3           8.2970     1.0470     0.4240 c3         1 GGN      -0.127700
     15 N3          -4.8410    -0.2220     0.0080 ns         1 GGN      -0.507900
     16 C1          10.4810     1.0350    -0.8580 c3         1 GGN      -0.090100
     17 C2           8.9800     1.2760    -0.9260 c3         1 GGN      -0.072400
     18 S1           3.9450    -2.1920     0.4390 ss         1 GGN       0.015600
     19 C15         -2.6990    -1.2700    -0.3300 ca         1 GGN      -0.147600
     20 C16         -1.9510    -0.1100    -0.1420 ca         1 GGN      -0.076500
     21 C17         -0.5760    -0.1750     0.0110 ca         1 GGN      -0.097000
     22 C18         -4.1760    -1.2520    -0.5460 c          1 GGN       0.612700
     23 O1          -4.7340    -2.1240    -1.1970 o          1 GGN      -0.591100
     24 C19         -6.2750    -0.0810    -0.1140 c3         1 GGN       0.107000
     25 C20         -6.6670     1.3440     0.2560 c3         1 GGN      -0.173400
     26 C21         -8.1420     1.5980     0.1240 c3         1 GGN       0.306000
     27 F1          -8.4600     2.8540     0.4650 f          1 GGN      -0.115000
     28 F2          -8.5820     1.4140    -1.1310 f          1 GGN      -0.115000
     29 F3          -8.8750     0.7880     0.9050 f          1 GGN      -0.115000
     30 H1          -2.6000    -3.4060    -0.5300 ha         1 GGN       0.125000
     31 H2           6.2710    -0.7520     0.4450 ha         1 GGN       0.123000
     32 H3           1.9710    -3.6170     0.3710 h4         1 GGN       0.165000
     33 H4           3.1120     2.1470     0.0870 ha         1 GGN       0.144000
     34 H5           4.8630     3.8900     0.1010 h4         1 GGN       0.022100
     35 H6          -0.1870    -3.5320    -0.2350 ha         1 GGN       0.126500
     36 H7           8.7470     1.7070     1.1710 hc         1 GGN       0.054200
     37 H8           8.4770     0.0220     0.7560 hc         1 GGN       0.054200
     38 H9          -4.3740     0.3410     0.7010 hn         1 GGN       0.315500
     39 H10         10.9530     1.7010    -0.1340 hc         1 GGN       0.033033
     40 H11         10.7030     0.0100    -0.5560 hc         1 GGN       0.033033
     41 H12         10.9540     1.2060    -1.8250 hc         1 GGN       0.033033
     42 H13          8.5320     0.6180    -1.6750 hc         1 GGN       0.046700
     43 H14          8.7830     2.2990    -1.2580 hc         1 GGN       0.046700
     44 H15         -2.4250     0.8630    -0.1410 ha         1 GGN       0.125000
     45 H16         -0.0100     0.7370     0.1420 ha         1 GGN       0.126500
     46 H17         -6.5600    -0.2990    -1.1430 h1         1 GGN       0.069200
     47 H18         -6.7890    -0.8010     0.5280 h1         1 GGN       0.069200
     48 H19         -6.3800     1.5620     1.2880 hc         1 GGN       0.082200
     49 H20         -6.1410     2.0540    -0.3860 hc         1 GGN       0.082200
@<TRIPOS>BOND
     1     1     3 ar  
     2     1    12 ar  
     3     1    14 1   
     4     2    11 ar  
     5     2    19 ar  
     6     2    30 1   
     7     3     4 ar  
     8     3    31 1   
     9     4     6 ar  
    10     4     8 1   
    11     5     9 2   
    12     5    18 1   
    13     5    32 1   
    14     6     7 ar  
    15     6    33 1   
    16     7    12 ar  
    17     7    34 1   
    18     8    13 2   
    19     8    18 1   
    20     9    10 1   
    21     9    13 1   
    22    10    11 ar  
    23    10    21 ar  
    24    11    35 1   
    25    14    17 1   
    26    14    36 1   
    27    14    37 1   
    28    15    22 1   
    29    15    24 1   
    30    15    38 1   
    31    16    17 1   
    32    16    39 1   
    33    16    40 1   
    34    16    41 1   
    35    17    42 1   
    36    17    43 1   
    37    19    20 ar  
    38    19    22 1   
    39    20    21 ar  
    40    20    44 1   
    41    21    45 1   
    42    22    23 2   
    43    24    25 1   
    44    24    46 1   
    45    24    47 1   
    46    25    26 1   
    47    25    48 1   
    48    25    49 1   
    49    26    27 1   
    50    26    28 1   
    51    26    29 1   
@<TRIPOS>SUBSTRUCTURE
     1 GGN         1 TEMP              0 ****  ****    0 ROOT
