@<TRIPOS>MOLECULE
GGN
   49    51     1     0     0
SMALL
No Charge or Current Charge


@<TRIPOS>ATOM
      1 C4           6.8970     1.4710     0.4920 ca         1 GGN       0.356300
      2 C14         -2.0050    -2.5900    -0.3330 ca         1 GGN      -0.076500
      3 C5           5.9940     0.4040     0.3180 ca         1 GGN      -0.153000
      4 C6           4.6020     0.6510     0.3100 ca         1 GGN      -0.092500
      5 C11          2.4030    -2.5030    -0.1930 cc         1 GGN      -0.265000
      6 C7           4.1990     1.9940     0.4820 ca         1 GGN      -0.128000
      7 C8           5.1660     2.9990     0.6480 ca         1 GGN       0.336900
      8 C9           3.6110    -0.4280     0.1310 cc         1 GGN       0.479900
      9 C10          1.6050    -1.3880    -0.0610 cd         1 GGN       0.344500
     10 C12          0.1210    -1.3920    -0.1040 ca         1 GGN      -0.095500
     11 C13         -0.6000    -2.5910    -0.2930 ca         1 GGN      -0.097000
     12 N1           6.4950     2.7510     0.6530 nb         1 GGN      -0.663000
     13 N2           2.3020    -0.2020     0.1250 nd         1 GGN      -0.637000
     14 C3           8.3990     1.2250     0.4950 c3         1 GGN      -0.127700
     15 N3          -4.9110    -0.2300    -0.0870 ns         1 GGN      -0.507900
     16 C1          10.4940     0.7880    -0.9370 c3         1 GGN      -0.090100
     17 C2           8.9740     1.0450    -0.9280 c3         1 GGN      -0.072400
     18 S1           4.0890    -2.0950    -0.0880 ss         1 GGN       0.015600
     19 C15         -2.7370    -1.3920    -0.1870 ca         1 GGN      -0.147600
     20 C16         -2.0160    -0.1890     0.0020 ca         1 GGN      -0.076500
     21 C17         -0.6110    -0.1920     0.0420 ca         1 GGN      -0.097000
     22 C18         -4.2520    -1.4310    -0.2360 c          1 GGN       0.612700
     23 O1          -4.8740    -2.4730    -0.4000 o          1 GGN      -0.591100
     24 C19         -6.3660    -0.0800    -0.1080 c3         1 GGN       0.107000
     25 C20         -6.7780     1.3920     0.0860 c3         1 GGN      -0.173400
     26 C21         -8.3040     1.6160     0.0730 c3         1 GGN       0.306000
     27 F1          -8.5940     2.9250     0.2480 f          1 GGN      -0.115000
     28 F2          -8.8440     1.2240    -1.1030 f          1 GGN      -0.115000
     29 F3          -8.9070     0.9210     1.0650 f          1 GGN      -0.115000
     30 H1          -2.5250    -3.5340    -0.4800 ha         1 GGN       0.125000
     31 H2           6.3920    -0.5990     0.1920 ha         1 GGN       0.123000
     32 H3           2.1200    -3.5340    -0.3460 h4         1 GGN       0.165000
     33 H4           3.1480     2.2720     0.4880 ha         1 GGN       0.144000
     34 H5           4.8670     4.0380     0.7800 h4         1 GGN       0.022100
     35 H6          -0.0830    -3.5390    -0.4100 ha         1 GGN       0.126500
     36 H7           8.9200     2.0530     0.9910 hc         1 GGN       0.054200
     37 H8           8.6200     0.3290     1.0880 hc         1 GGN       0.054200
     38 H9          -4.3400     0.5940     0.0450 hn         1 GGN       0.315500
     39 H10         11.0320     1.6270    -0.4800 hc         1 GGN       0.033033
     40 H11         10.7370    -0.1250    -0.3800 hc         1 GGN       0.033033
     41 H12         10.8550     0.6680    -1.9650 hc         1 GGN       0.033033
     42 H13          8.4680     0.2070    -1.4230 hc         1 GGN       0.046700
     43 H14          8.7600     1.9430    -1.5210 hc         1 GGN       0.046700
     44 H15         -2.5270     0.7630     0.1210 ha         1 GGN       0.125000
     45 H16         -0.0950     0.7540     0.1900 ha         1 GGN       0.126500
     46 H17         -6.7460    -0.4510    -1.0700 h1         1 GGN       0.069200
     47 H18         -6.7970    -0.6970     0.6920 h1         1 GGN       0.069200
     48 H19         -6.3770     1.7570     1.0390 hc         1 GGN       0.082200
     49 H20         -6.3270     2.0020    -0.7070 hc         1 GGN       0.082200
@<TRIPOS>BOND
     1     1     3 ar  
     2     1    12 ar  
     3     1    14 1   
     4     2    11 ar  
     5     2    19 ar  
     6     2    30 1   
     7     3     4 ar  
     8     3    31 1   
     9     4     6 ar  
    10     4     8 1   
    11     5     9 2   
    12     5    18 1   
    13     5    32 1   
    14     6     7 ar  
    15     6    33 1   
    16     7    12 ar  
    17     7    34 1   
    18     8    13 2   
    19     8    18 1   
    20     9    10 1   
    21     9    13 1   
    22    10    11 ar  
    23    10    21 ar  
    24    11    35 1   
    25    14    17 1   
    26    14    36 1   
    27    14    37 1   
    28    15    22 1   
    29    15    24 1   
    30    15    38 1   
    31    16    17 1   
    32    16    39 1   
    33    16    40 1   
    34    16    41 1   
    35    17    42 1   
    36    17    43 1   
    37    19    20 ar  
    38    19    22 1   
    39    20    21 ar  
    40    20    44 1   
    41    21    45 1   
    42    22    23 2   
    43    24    25 1   
    44    24    46 1   
    45    24    47 1   
    46    25    26 1   
    47    25    48 1   
    48    25    49 1   
    49    26    27 1   
    50    26    28 1   
    51    26    29 1   
@<TRIPOS>SUBSTRUCTURE
     1 GGN         1 TEMP              0 ****  ****    0 ROOT
