@<TRIPOS>MOLECULE
GGO
   47    50     1     0     0
SMALL
abcg2


@<TRIPOS>ATOM
      1 C5           1.8830     1.7140    -3.4440 c3         1 GGO       0.098000
      2 C6           3.3360     1.3910    -3.8060 c3         1 GGO      -0.052100
      3 C7           3.6160     1.7080    -5.2490 ca         1 GGO      -0.081300
      4 C8           3.4910     0.7270    -6.2250 ca         1 GGO      -0.103000
      5 C10          4.0360     2.2850    -7.9140 ca         1 GGO       0.053100
      6 C15          3.9590     3.0200    -5.6180 ca         1 GGO      -0.099000
      7 C20          1.3520     0.8060     2.1970 ca         1 GGO      -0.114300
      8 C21          0.0160     0.7670     2.5970 ca         1 GGO      -0.104000
      9 C22         -0.3260     0.6070     3.9210 ca         1 GGO       0.121000
     10 C24          0.6580     0.4790     4.8870 ca         1 GGO       0.166000
     11 C26          1.9880     0.5140     4.5320 ca         1 GGO      -0.172000
     12 N            1.8290     3.5240     1.0600 n8         1 GGO      -0.996200
     13 C            1.3370     2.4190     0.2650 c6         1 GGO       0.157500
     14 C3           1.8530     2.6030    -1.1530 c6         1 GGO       0.109000
     15 N4           1.5890     1.4820    -2.0400 n          1 GGO      -0.409800
     16 C9           3.7010     0.9970    -7.5830 ca         1 GGO      -0.094000
     17 O            4.2940     2.8100    -9.1380 os         1 GGO      -0.345100
     18 C12          4.6060     4.1830    -8.9390 c5         1 GGO       0.376600
     19 O13          4.5030     4.4420    -7.5440 os         1 GGO      -0.347100
     20 C14          4.1630     3.2720    -6.9510 ca         1 GGO       0.054100
     21 C16          1.2970     0.2270    -1.6380 c          1 GGO       0.564000
     22 O17          1.1830    -0.7000    -2.4310 o          1 GGO      -0.563000
     23 C18          1.0600    -0.0080    -0.1630 c6         1 GGO      -0.151400
     24 C19          1.7220     1.0150     0.7520 c6         1 GGO      -0.051400
     25 F           -1.6100     0.5730     4.2910 f          1 GGO      -0.152000
     26 F25          0.3070     0.3220     6.1640 f          1 GGO      -0.149000
     27 C27          2.3050     0.6800     3.1960 ca         1 GGO       0.183000
     28 F28          3.6060     0.7190     2.8730 f          1 GGO      -0.169000
     29 H51          1.6720     2.7640    -3.6580 h1         1 GGO       0.063200
     30 H52          1.2070     1.1220    -4.0600 h1         1 GGO       0.063200
     31 H61          4.0080     1.9620    -3.1610 hc         1 GGO       0.056700
     32 H62          3.5260     0.3340    -3.6110 hc         1 GGO       0.056700
     33 H8           3.2280    -0.2810    -5.9300 ha         1 GGO       0.126000
     34 H15          4.0640     3.8010    -4.8750 ha         1 GGO       0.130000
     35 H21         -0.7810     0.8640     1.8700 ha         1 GGO       0.142000
     36 H26          2.7620     0.4160     5.2810 ha         1 GGO       0.157000
     37 HN1          2.8320     3.4440     1.1890 hn         1 GGO       0.405500
     38 HN2          1.4190     3.5000     1.9840 hn         1 GGO       0.405500
     39 H            0.2430     2.4870     0.2510 h1         1 GGO       0.070700
     40 H31          1.3930     3.4950    -1.5810 h1         1 GGO       0.051700
     41 H32          2.9330     2.7920    -1.1130 h1         1 GGO       0.051700
     42 H9           3.6050     0.2220    -8.3320 ha         1 GGO       0.135000
     43 H121         5.6260     4.3840    -9.2780 h2         1 GGO       0.063200
     44 H122         3.8960     4.8080    -9.4840 h2         1 GGO       0.063200
     45 H181        -0.0250    -0.0120    -0.0180 hc         1 GGO       0.077700
     46 H182         1.4040    -1.0170     0.0680 hc         1 GGO       0.077700
     47 H19          2.8060     0.9160     0.6470 hc         1 GGO       0.074700
@<TRIPOS>BOND
     1     1     2 1   
     2     1    15 1   
     3     1    29 1   
     4     1    30 1   
     5     2     3 1   
     6     2    31 1   
     7     2    32 1   
     8     3     4 ar  
     9     3     6 ar  
    10     4    16 ar  
    11     4    33 1   
    12     5    16 ar  
    13     5    17 1   
    14     5    20 ar  
    15     6    20 ar  
    16     6    34 1   
    17     7     8 ar  
    18     7    24 1   
    19     7    27 ar  
    20     8     9 ar  
    21     8    35 1   
    22     9    10 ar  
    23     9    25 1   
    24    10    11 ar  
    25    10    26 1   
    26    11    27 ar  
    27    11    36 1   
    28    12    13 1   
    29    12    37 1   
    30    12    38 1   
    31    13    14 1   
    32    13    24 1   
    33    13    39 1   
    34    14    15 1   
    35    14    40 1   
    36    14    41 1   
    37    15    21 1   
    38    16    42 1   
    39    17    18 1   
    40    18    19 1   
    41    18    43 1   
    42    18    44 1   
    43    19    20 1   
    44    21    22 2   
    45    21    23 1   
    46    23    24 1   
    47    23    45 1   
    48    23    46 1   
    49    24    47 1   
    50    27    28 1   
@<TRIPOS>SUBSTRUCTURE
     1 GGO         1 TEMP              0 ****  ****    0 ROOT
