@<TRIPOS>MOLECULE
GGO
   47    50     1     0     0
SMALL
No Charge or Current Charge


@<TRIPOS>ATOM
      1 C5           1.9600     1.6830    -3.4730 c3         1 GGO       0.098000
      2 C6           3.4540     1.6540    -3.8500 c3         1 GGO      -0.052100
      3 C7           3.6680     1.8810    -5.3400 ca         1 GGO      -0.081300
      4 C8           3.5920     0.7900    -6.2420 ca         1 GGO      -0.103000
      5 C10          4.0440     2.2900    -8.0740 ca         1 GGO       0.053100
      6 C15          3.9310     3.1810    -5.8300 ca         1 GGO      -0.099000
      7 C20          1.2990     0.8050     2.3330 ca         1 GGO      -0.114300
      8 C21         -0.0500     0.9930     2.7160 ca         1 GGO      -0.104000
      9 C22         -0.4470     0.7800     4.0460 ca         1 GGO       0.121000
     10 C24          0.4940     0.3750     5.0090 ca         1 GGO       0.166000
     11 C26          1.8330     0.1790     4.6430 ca         1 GGO      -0.172000
     12 N            1.8180     3.5050     1.2260 n8         1 GGO      -0.996200
     13 C            1.3440     2.4320     0.3170 c6         1 GGO       0.157500
     14 C3           1.8950     2.6260    -1.1240 c6         1 GGO       0.109000
     15 N4           1.7210     1.4540    -2.0270 n          1 GGO      -0.409800
     16 C9           3.7800     0.9900    -7.6270 ca         1 GGO      -0.094000
     17 O            4.2400     2.6630    -9.3640 os         1 GGO      -0.345100
     18 C12          4.5250     4.1020    -9.2460 c5         1 GGO       0.376600
     19 O13          4.3670     4.5180    -7.8420 os         1 GGO      -0.347100
     20 C14          4.1160     3.3440    -7.2090 ca         1 GGO       0.054100
     21 C16          1.4130     0.1550    -1.5560 c          1 GGO       0.564000
     22 O17          1.4100    -0.8120    -2.3070 o          1 GGO      -0.563000
     23 C18          1.1060    -0.0410    -0.0640 c6         1 GGO      -0.151400
     24 C19          1.7240     1.0320     0.8650 c6         1 GGO      -0.051400
     25 F           -1.7420     0.9660     4.3930 f          1 GGO      -0.152000
     26 F25          0.1160     0.1680     6.2910 f          1 GGO      -0.149000
     27 C27          2.2330     0.3910     3.3140 ca         1 GGO       0.183000
     28 F28          3.5300     0.1880     2.9910 f          1 GGO      -0.169000
     29 H51          1.5440     2.6600    -3.7500 h1         1 GGO       0.063200
     30 H52          1.4210     0.9320    -4.0660 h1         1 GGO       0.063200
     31 H61          3.9890     2.4170    -3.2710 hc         1 GGO       0.056700
     32 H62          3.8780     0.6880    -3.5520 hc         1 GGO       0.056700
     33 H8           3.3840    -0.2110    -5.8700 ha         1 GGO       0.126000
     34 H15          3.9880     4.0360    -5.1620 ha         1 GGO       0.130000
     35 H21         -0.7960     1.3010     1.9880 ha         1 GGO       0.142000
     36 H26          2.5600    -0.1370     5.3850 ha         1 GGO       0.157000
     37 HN1          2.8330     3.4090     1.3510 hn         1 GGO       0.405500
     38 HN2          1.4500     3.3150     2.1650 hn         1 GGO       0.405500
     39 H            0.2470     2.5060     0.2690 h1         1 GGO       0.070700
     40 H31          1.4170     3.5080    -1.5720 h1         1 GGO       0.051700
     41 H32          2.9720     2.8410    -1.0620 h1         1 GGO       0.051700
     42 H9           3.7210     0.1610    -8.3280 ha         1 GGO       0.135000
     43 H121         5.5570     4.2910    -9.5620 h2         1 GGO       0.063200
     44 H122         3.8290     4.6680    -9.8780 h2         1 GGO       0.063200
     45 H181         0.0140     0.0280     0.0170 hc         1 GGO       0.077700
     46 H182         1.3710    -1.0640     0.2330 hc         1 GGO       0.077700
     47 H19          2.8170     0.9380     0.7840 hc         1 GGO       0.074700
@<TRIPOS>BOND
     1     1     2 1   
     2     1    15 1   
     3     1    29 1   
     4     1    30 1   
     5     2     3 1   
     6     2    31 1   
     7     2    32 1   
     8     3     4 ar  
     9     3     6 ar  
    10     4    16 ar  
    11     4    33 1   
    12     5    16 ar  
    13     5    17 1   
    14     5    20 ar  
    15     6    20 ar  
    16     6    34 1   
    17     7     8 ar  
    18     7    24 1   
    19     7    27 ar  
    20     8     9 ar  
    21     8    35 1   
    22     9    10 ar  
    23     9    25 1   
    24    10    11 ar  
    25    10    26 1   
    26    11    27 ar  
    27    11    36 1   
    28    12    13 1   
    29    12    37 1   
    30    12    38 1   
    31    13    14 1   
    32    13    24 1   
    33    13    39 1   
    34    14    15 1   
    35    14    40 1   
    36    14    41 1   
    37    15    21 1   
    38    16    42 1   
    39    17    18 1   
    40    18    19 1   
    41    18    43 1   
    42    18    44 1   
    43    19    20 1   
    44    21    22 2   
    45    21    23 1   
    46    23    24 1   
    47    23    45 1   
    48    23    46 1   
    49    24    47 1   
    50    27    28 1   
@<TRIPOS>SUBSTRUCTURE
     1 GGO         1 TEMP              0 ****  ****    0 ROOT
