@<TRIPOS>MOLECULE
GGP
   99   104     1     0     0
SMALL
bcc


@<TRIPOS>ATOM
      1 C1          -0.2360    -0.4260     2.3690 c6         1 GGP       0.114100
      2 C2          -1.3800    -1.3470     1.9800 c6         1 GGP       0.126100
      3 C3          -1.7370    -1.1070     0.5130 c6         1 GGP       0.151100
      4 C4          -2.0100     0.3780     0.2740 c6         1 GGP       0.089100
      5 C5          -0.9430     1.3040     0.8880 c6         1 GGP       0.342900
      6 O6          -0.6150     0.9300     2.1730 os         1 GGP      -0.371600
      7 O7           0.2500     1.2750     0.1110 os         1 GGP      -0.450900
      8 C8           0.3930     2.1060    -0.9200 c          1 GGP       0.677700
      9 O9          -0.4280     2.9240    -1.2520 o          1 GGP      -0.521000
     10 C10          1.6680     1.8710    -1.6300 ca         1 GGP      -0.088600
     11 C11          1.6410     1.9000    -3.0160 ca         1 GGP      -0.166000
     12 C12          2.7870     1.5730    -3.7260 ca         1 GGP       0.116600
     13 O13          2.7100     1.4840    -5.0680 oh         1 GGP      -0.510100
     14 C14          3.9860     1.3560    -3.0520 ca         1 GGP       0.048100
     15 O15          5.0880     1.1190    -3.7990 oh         1 GGP      -0.509100
     16 C16          4.0210     1.4110    -1.6570 ca         1 GGP       0.116600
     17 O17          5.2220     1.2180    -1.0770 oh         1 GGP      -0.510100
     18 C18          2.8470     1.6010    -0.9440 ca         1 GGP      -0.166000
     19 C19          2.5480    -0.6220     4.3590 c          1 GGP       0.663700
     20 O20          2.4420    -1.5930     5.0660 o          1 GGP      -0.525000
     21 C21          3.8380    -0.0680     3.8950 ca         1 GGP      -0.118600
     22 C22          5.0120    -0.6830     4.3230 ca         1 GGP      -0.142500
     23 C23          6.2320    -0.2660     3.8230 ca         1 GGP       0.065600
     24 O24          7.4190    -0.7970     4.1770 oh         1 GGP      -0.509100
     25 C25          6.2960     0.7660     2.8780 ca         1 GGP       0.133100
     26 O26          7.4520     1.1880     2.3480 oh         1 GGP      -0.466100
     27 C27          5.1140     1.3810     2.4720 ca         1 GGP       0.065600
     28 O28          5.2310     2.3540     1.5240 oh         1 GGP      -0.509100
     29 C29          3.8910     0.9710     2.9710 ca         1 GGP      -0.142500
     30 C30          0.2310    -0.5730     3.8030 c3         1 GGP       0.147400
     31 O31          1.5110     0.0560     3.8730 os         1 GGP      -0.423900
     32 O32         -2.5580    -1.0180     2.7060 os         1 GGP      -0.422900
     33 C33         -2.9270    -1.7400     3.7670 c          1 GGP       0.669700
     34 O34         -2.2760    -2.6560     4.2040 o          1 GGP      -0.534000
     35 C35         -4.2090    -1.2740     4.3320 ca         1 GGP      -0.111600
     36 C36         -4.6820    -1.9050     5.4810 ca         1 GGP      -0.134500
     37 C37         -5.8780    -1.4950     6.0430 ca         1 GGP       0.103100
     38 O38         -6.4190    -2.0350     7.1550 oh         1 GGP      -0.500600
     39 C39         -6.6120    -0.4580     5.4610 ca         1 GGP       0.052100
     40 O40         -7.7790    -0.0160     5.9650 oh         1 GGP      -0.510100
     41 C41         -6.1330     0.1670     4.3080 ca         1 GGP       0.103100
     42 O42         -6.8150     1.1690     3.7210 oh         1 GGP      -0.500600
     43 C43         -4.9330    -0.2400     3.7460 ca         1 GGP      -0.134500
     44 O44         -2.0570     0.5610    -1.1250 os         1 GGP      -0.426900
     45 C45         -2.9460     1.3990    -1.6690 c          1 GGP       0.679700
     46 O46         -3.7780     1.9880    -1.0280 o          1 GGP      -0.518000
     47 C47         -2.7910     1.4900    -3.1350 ca         1 GGP      -0.094600
     48 C48         -3.7630     2.1790    -3.8520 ca         1 GGP      -0.130500
     49 C49         -3.6560     2.2990    -5.2280 ca         1 GGP       0.099100
     50 O50         -4.6150     2.9650    -5.8990 oh         1 GGP      -0.508100
     51 C51         -2.5600     1.7450    -5.8940 ca         1 GGP       0.050100
     52 O52         -2.4990     1.9080    -7.2280 oh         1 GGP      -0.513100
     53 C53         -1.5860     1.0590    -5.1670 ca         1 GGP       0.099100
     54 O54         -0.5580     0.5550    -5.8930 oh         1 GGP      -0.508100
     55 C55         -1.7040     0.9190    -3.7960 ca         1 GGP      -0.130500
     56 O56         -0.6080    -1.5000    -0.2520 os         1 GGP      -0.423900
     57 C57         -0.7840    -1.9660    -1.4950 c          1 GGP       0.676700
     58 O58         -1.8450    -2.3430    -1.9210 o          1 GGP      -0.514000
     59 C59          0.4680    -1.9460    -2.2790 ca         1 GGP      -0.104600
     60 C60          0.3640    -2.1330    -3.6560 ca         1 GGP      -0.160000
     61 C61          1.5010    -2.0760    -4.4430 ca         1 GGP       0.083100
     62 O62          1.4960    -2.1990    -5.7890 oh         1 GGP      -0.495600
     63 C63          2.7560    -1.8740    -3.8640 ca         1 GGP       0.110100
     64 O64          3.8840    -1.8200    -4.5880 oh         1 GGP      -0.474100
     65 C65          2.8550    -1.7320    -2.4790 ca         1 GGP       0.083100
     66 O66          4.1000    -1.6030    -1.9840 oh         1 GGP      -0.495600
     67 C67          1.7120    -1.7310    -1.6940 ca         1 GGP      -0.160000
     68 HC1          0.6150    -0.6940     1.7330 h1         1 GGP       0.079700
     69 HC2         -1.0970    -2.3930     2.1240 h1         1 GGP       0.096700
     70 HC3         -2.6190    -1.6930     0.2430 h1         1 GGP       0.098700
     71 HC4         -2.9670     0.6330     0.7350 h1         1 GGP       0.104700
     72 HC5         -1.3270     2.3250     0.9490 h2         1 GGP       0.114700
     73 H11          0.7270     2.1390    -3.5430 ha         1 GGP       0.152000
     74 H13          3.5410     1.1490    -5.4290 ho         1 GGP       0.455500
     75 H15          5.6860     0.5130    -3.3450 ho         1 GGP       0.456000
     76 H17          5.2410     1.6020    -0.1830 ho         1 GGP       0.455500
     77 H18          2.8550     1.5700     0.1380 ha         1 GGP       0.152000
     78 H22          4.9740    -1.4940     5.0390 ha         1 GGP       0.162000
     79 H24          7.3060    -1.5200     4.8040 ho         1 GGP       0.440000
     80 H26          8.1890     0.6620     2.6820 ho         1 GGP       0.448000
     81 H28          4.5030     2.9830     1.5930 ho         1 GGP       0.440000
     82 H29          2.9860     1.4560     2.6280 ha         1 GGP       0.162000
     83 H301         0.3050    -1.6290     4.0620 h1         1 GGP       0.081700
     84 H302        -0.4420    -0.0850     4.5100 h1         1 GGP       0.081700
     85 H36         -4.1150    -2.7060     5.9390 ha         1 GGP       0.163500
     86 H38         -5.8760    -2.7570     7.4900 ho         1 GGP       0.445500
     87 H40         -8.0570    -0.5450     6.7230 ho         1 GGP       0.458000
     88 H42         -7.6370     1.3500     4.1910 ho         1 GGP       0.445500
     89 H43         -4.5880     0.2640     2.8540 ha         1 GGP       0.163500
     90 H48         -4.6100     2.6240    -3.3480 ha         1 GGP       0.162000
     91 H50         -4.4170     2.9940    -6.8430 ho         1 GGP       0.446500
     92 H52         -1.6710     1.5660    -7.5850 ho         1 GGP       0.456000
     93 H54          0.2000     0.3500    -5.3360 ho         1 GGP       0.446500
     94 H55         -0.9400     0.3790    -3.2550 ha         1 GGP       0.162000
     95 H60         -0.6000    -2.3210    -4.1130 ha         1 GGP       0.159000
     96 H62          0.6350    -2.4890    -6.1110 ho         1 GGP       0.438500
     97 H64          3.6970    -1.9950    -5.5190 ho         1 GGP       0.444000
     98 H66          4.0710    -1.5060    -1.0260 ho         1 GGP       0.438500
     99 H67          1.8080    -1.5920    -0.6250 ha         1 GGP       0.159000
@<TRIPOS>BOND
     1     1     2 1   
     2     1     6 1   
     3     1    30 1   
     4     1    68 1   
     5     2     3 1   
     6     2    32 1   
     7     2    69 1   
     8     3     4 1   
     9     3    56 1   
    10     3    70 1   
    11     4     5 1   
    12     4    44 1   
    13     4    71 1   
    14     5     6 1   
    15     5     7 1   
    16     5    72 1   
    17     7     8 1   
    18     8     9 2   
    19     8    10 1   
    20    10    11 ar  
    21    10    18 ar  
    22    11    12 ar  
    23    11    73 1   
    24    12    13 1   
    25    12    14 ar  
    26    13    74 1   
    27    14    15 1   
    28    14    16 ar  
    29    15    75 1   
    30    16    17 1   
    31    16    18 ar  
    32    17    76 1   
    33    18    77 1   
    34    19    20 2   
    35    19    21 1   
    36    19    31 1   
    37    21    22 ar  
    38    21    29 ar  
    39    22    23 ar  
    40    22    78 1   
    41    23    24 1   
    42    23    25 ar  
    43    24    79 1   
    44    25    26 1   
    45    25    27 ar  
    46    26    80 1   
    47    27    28 1   
    48    27    29 ar  
    49    28    81 1   
    50    29    82 1   
    51    30    31 1   
    52    30    83 1   
    53    30    84 1   
    54    32    33 1   
    55    33    34 2   
    56    33    35 1   
    57    35    36 ar  
    58    35    43 ar  
    59    36    37 ar  
    60    36    85 1   
    61    37    38 1   
    62    37    39 ar  
    63    38    86 1   
    64    39    40 1   
    65    39    41 ar  
    66    40    87 1   
    67    41    42 1   
    68    41    43 ar  
    69    42    88 1   
    70    43    89 1   
    71    44    45 1   
    72    45    46 2   
    73    45    47 1   
    74    47    48 ar  
    75    47    55 ar  
    76    48    49 ar  
    77    48    90 1   
    78    49    50 1   
    79    49    51 ar  
    80    50    91 1   
    81    51    52 1   
    82    51    53 ar  
    83    52    92 1   
    84    53    54 1   
    85    53    55 ar  
    86    54    93 1   
    87    55    94 1   
    88    56    57 1   
    89    57    58 2   
    90    57    59 1   
    91    59    60 ar  
    92    59    67 ar  
    93    60    61 ar  
    94    60    95 1   
    95    61    62 1   
    96    61    63 ar  
    97    62    96 1   
    98    63    64 1   
    99    63    65 ar  
   100    64    97 1   
   101    65    66 1   
   102    65    67 ar  
   103    66    98 1   
   104    67    99 1   
@<TRIPOS>SUBSTRUCTURE
     1 GGP         1 TEMP              0 ****  ****    0 ROOT
