@<TRIPOS>MOLECULE
GGP
   99   104     1     0     0
SMALL
No Charge or Current Charge


@<TRIPOS>ATOM
      1 C1           0.0960    -0.5160     1.8720 c6         1 GGP       0.137300
      2 C2          -1.1150    -1.4190     1.4480 c6         1 GGP       0.149300
      3 C3          -1.4860    -1.1130    -0.0290 c6         1 GGP       0.174300
      4 C4          -1.7670     0.4210    -0.1660 c6         1 GGP       0.112300
      5 C5          -0.5300     1.2640     0.3130 c6         1 GGP       0.389300
      6 O6          -0.2210     0.8900     1.6740 os         1 GGP      -0.418000
      7 O7           0.6510     1.0480    -0.4820 os         1 GGP      -0.474100
      8 C8           0.7830     1.6230    -1.7150 c          1 GGP       0.628700
      9 O9           0.0420     2.5020    -2.1310 o          1 GGP      -0.472000
     10 C10          2.0030     1.1550    -2.4770 ca         1 GGP      -0.088600
     11 C11          2.1080     1.4240    -3.8620 ca         1 GGP      -0.148000
     12 C12          3.2330     1.0050    -4.5870 ca         1 GGP       0.116600
     13 O13          3.3260     1.2700    -5.9210 oh         1 GGP      -0.549100
     14 C14          4.2770     0.3180    -3.9410 ca         1 GGP       0.048100
     15 O15          5.3850    -0.0820    -4.6440 oh         1 GGP      -0.548100
     16 C16          4.1870     0.0460    -2.5620 ca         1 GGP       0.116600
     17 O17          5.2170    -0.6030    -1.9350 oh         1 GGP      -0.549100
     18 C18          3.0540     0.4540    -1.8360 ca         1 GGP      -0.148000
     19 C19          2.3450    -0.0390     4.8120 c          1 GGP       0.614700
     20 O20          1.8450    -0.6440     5.7520 o          1 GGP      -0.476000
     21 C21          3.6410     0.7400     4.9280 ca         1 GGP      -0.118600
     22 C22          4.3570     0.7350     6.1470 ca         1 GGP      -0.124500
     23 C23          5.5590     1.4510     6.2750 ca         1 GGP       0.065600
     24 O24          6.2480     1.4390     7.4620 oh         1 GGP      -0.548100
     25 C25          6.0630     2.1880     5.1840 ca         1 GGP       0.133100
     26 O26          7.2380     2.8770     5.3440 oh         1 GGP      -0.505100
     27 C27          5.3570     2.2060     3.9580 ca         1 GGP       0.065600
     28 O28          5.8280     2.9190     2.8840 oh         1 GGP      -0.548100
     29 C29          4.1550     1.4840     3.8360 ca         1 GGP      -0.124500
     30 C30          0.5420    -0.6990     3.3490 c3         1 GGP       0.170600
     31 O31          1.7890    -0.0040     3.5590 os         1 GGP      -0.447100
     32 O32         -2.2800    -1.2150     2.2890 os         1 GGP      -0.446100
     33 C33         -2.4790    -1.9340     3.4410 c          1 GGP       0.620700
     34 O34         -1.7260    -2.8220     3.8140 o          1 GGP      -0.485000
     35 C35         -3.7280    -1.5380     4.1990 ca         1 GGP      -0.111600
     36 C36         -4.0700    -2.2110     5.3960 ca         1 GGP      -0.116500
     37 C37         -5.2260    -1.8550     6.1140 ca         1 GGP       0.103100
     38 O38         -5.5550    -2.5090     7.2730 oh         1 GGP      -0.539600
     39 C39         -6.0560    -0.8190     5.6430 ca         1 GGP       0.052100
     40 O40         -7.1830    -0.4740     6.3450 oh         1 GGP      -0.549100
     41 C41         -5.7240    -0.1430     4.4540 ca         1 GGP       0.103100
     42 O42         -6.5310     0.8600     4.0010 oh         1 GGP      -0.539600
     43 C43         -4.5700    -0.4980     3.7360 ca         1 GGP      -0.116500
     44 O44         -2.2740     0.7910    -1.4770 os         1 GGP      -0.450100
     45 C45         -2.8740     2.0120    -1.6750 c          1 GGP       0.630700
     46 O46         -3.0540     2.8170    -0.7710 o          1 GGP      -0.469000
     47 C47         -3.3190     2.2660    -3.1000 ca         1 GGP      -0.094600
     48 C48         -3.8600     3.5240    -3.4520 ca         1 GGP      -0.112500
     49 C49         -4.2760     3.7810    -4.7670 ca         1 GGP       0.099100
     50 O50         -4.7960     4.9990    -5.0980 oh         1 GGP      -0.547100
     51 C51         -4.1600     2.7850    -5.7540 ca         1 GGP       0.050100
     52 O52         -4.5680     3.0320    -7.0410 oh         1 GGP      -0.552100
     53 C53         -3.6260     1.5270    -5.4180 ca         1 GGP       0.099100
     54 O54         -3.5210     0.5580    -6.3830 oh         1 GGP      -0.547100
     55 C55         -3.2060     1.2700    -4.1000 ca         1 GGP      -0.112500
     56 O56         -0.4090    -1.5830    -0.8770 os         1 GGP      -0.447100
     57 C57         -0.5690    -1.7820    -2.2230 c          1 GGP       0.627700
     58 O58         -1.6510    -1.7520    -2.7910 o          1 GGP      -0.465000
     59 C59          0.7040    -2.2170    -2.9140 ca         1 GGP      -0.104600
     60 C60          0.8470    -2.0350    -4.3070 ca         1 GGP      -0.142000
     61 C61          2.0170    -2.4490    -4.9650 ca         1 GGP       0.083100
     62 O62          2.1480    -2.2700    -6.3180 oh         1 GGP      -0.534600
     63 C63          3.0570    -3.0650    -4.2400 ca         1 GGP       0.110100
     64 O64          4.1770    -3.4770    -4.9170 oh         1 GGP      -0.513100
     65 C65          2.9240    -3.2590    -2.8450 ca         1 GGP       0.083100
     66 O66          3.9120    -3.8770    -2.1210 oh         1 GGP      -0.534600
     67 C67          1.7560    -2.8260    -2.1900 ca         1 GGP      -0.142000
     68 HC1          0.9600    -0.7770     1.2430 h1         1 GGP       0.079700
     69 HC2         -0.8170    -2.4770     1.4980 h1         1 GGP       0.096700
     70 HC3         -2.4000    -1.6730    -0.2740 h1         1 GGP       0.098700
     71 HC4         -2.5740     0.6410     0.5480 h1         1 GGP       0.104700
     72 HC5         -0.7890     2.3340     0.2990 h2         1 GGP       0.114700
     73 H11          1.3130     1.9580    -4.3770 ha         1 GGP       0.134000
     74 H13          4.1840     0.8860    -6.2130 ho         1 GGP       0.494500
     75 H15          5.9620    -0.5570    -4.0020 ho         1 GGP       0.495000
     76 H17          4.9890    -0.7180    -0.9870 ho         1 GGP       0.494500
     77 H18          2.9940     0.2410    -0.7710 ha         1 GGP       0.134000
     78 H22          3.9750     0.1690     6.9940 ha         1 GGP       0.144000
     79 H24          5.7610     0.8830     8.1110 ho         1 GGP       0.479000
     80 H26          7.5240     2.7070     6.2690 ho         1 GGP       0.487000
     81 H28          5.2020     2.8230     2.1340 ho         1 GGP       0.479000
     82 H29          3.6160     1.5040     2.8910 ha         1 GGP       0.144000
     83 H301         0.6660    -1.7710     3.5520 h1         1 GGP       0.081700
     84 H302        -0.2420    -0.3080     4.0120 h1         1 GGP       0.081700
     85 H36         -3.4330    -3.0120     5.7650 ha         1 GGP       0.145500
     86 H38         -4.8780    -3.1970     7.4570 ho         1 GGP       0.484500
     87 H40         -7.2170    -1.0680     7.1310 ho         1 GGP       0.497000
     88 H42         -7.2660     0.9340     4.6510 ho         1 GGP       0.484500
     89 H43         -4.3380     0.0420     2.8220 ha         1 GGP       0.145500
     90 H48         -3.9580     4.3080    -2.7040 ha         1 GGP       0.144000
     91 H50         -5.0160     4.9520    -6.0560 ho         1 GGP       0.485500
     92 H52         -4.3970     2.2050    -7.5510 ho         1 GGP       0.495000
     93 H54         -3.1640    -0.2620    -5.9760 ho         1 GGP       0.485500
     94 H55         -2.7970     0.2950    -3.8540 ha         1 GGP       0.144000
     95 H60          0.0430    -1.5670    -4.8720 ha         1 GGP       0.141000
     96 H62          1.3510    -1.8070    -6.6580 ho         1 GGP       0.477500
     97 H64          4.0320    -3.2230    -5.8560 ho         1 GGP       0.483000
     98 H66          3.6190    -3.9690    -1.1900 ho         1 GGP       0.477500
     99 H67          1.6550    -2.9810    -1.1180 ha         1 GGP       0.141000
@<TRIPOS>BOND
     1     1     2 1   
     2     1     6 1   
     3     1    30 1   
     4     1    68 1   
     5     2     3 1   
     6     2    32 1   
     7     2    69 1   
     8     3     4 1   
     9     3    56 1   
    10     3    70 1   
    11     4     5 1   
    12     4    44 1   
    13     4    71 1   
    14     5     6 1   
    15     5     7 1   
    16     5    72 1   
    17     7     8 1   
    18     8     9 2   
    19     8    10 1   
    20    10    11 ar  
    21    10    18 ar  
    22    11    12 ar  
    23    11    73 1   
    24    12    13 1   
    25    12    14 ar  
    26    13    74 1   
    27    14    15 1   
    28    14    16 ar  
    29    15    75 1   
    30    16    17 1   
    31    16    18 ar  
    32    17    76 1   
    33    18    77 1   
    34    19    20 2   
    35    19    21 1   
    36    19    31 1   
    37    21    22 ar  
    38    21    29 ar  
    39    22    23 ar  
    40    22    78 1   
    41    23    24 1   
    42    23    25 ar  
    43    24    79 1   
    44    25    26 1   
    45    25    27 ar  
    46    26    80 1   
    47    27    28 1   
    48    27    29 ar  
    49    28    81 1   
    50    29    82 1   
    51    30    31 1   
    52    30    83 1   
    53    30    84 1   
    54    32    33 1   
    55    33    34 2   
    56    33    35 1   
    57    35    36 ar  
    58    35    43 ar  
    59    36    37 ar  
    60    36    85 1   
    61    37    38 1   
    62    37    39 ar  
    63    38    86 1   
    64    39    40 1   
    65    39    41 ar  
    66    40    87 1   
    67    41    42 1   
    68    41    43 ar  
    69    42    88 1   
    70    43    89 1   
    71    44    45 1   
    72    45    46 2   
    73    45    47 1   
    74    47    48 ar  
    75    47    55 ar  
    76    48    49 ar  
    77    48    90 1   
    78    49    50 1   
    79    49    51 ar  
    80    50    91 1   
    81    51    52 1   
    82    51    53 ar  
    83    52    92 1   
    84    53    54 1   
    85    53    55 ar  
    86    54    93 1   
    87    55    94 1   
    88    56    57 1   
    89    57    58 2   
    90    57    59 1   
    91    59    60 ar  
    92    59    67 ar  
    93    60    61 ar  
    94    60    95 1   
    95    61    62 1   
    96    61    63 ar  
    97    62    96 1   
    98    63    64 1   
    99    63    65 ar  
   100    64    97 1   
   101    65    66 1   
   102    65    67 ar  
   103    66    98 1   
   104    67    99 1   
@<TRIPOS>SUBSTRUCTURE
     1 GGP         1 TEMP              0 ****  ****    0 ROOT
