@<TRIPOS>MOLECULE
GGQ
   47    49     1     0     0
SMALL
No Charge or Current Charge


@<TRIPOS>ATOM
      1 C12         10.6410     3.5320    -6.5060 cc         1 GGQ       0.726300
      2 C14          8.9400     2.2160    -5.1980 c6         1 GGQ       0.217300
      3 C15          8.7770     1.7220    -3.7230 c6         1 GGQ       0.145800
      4 C17         11.1470     1.0980    -3.6210 c6         1 GGQ       0.145800
      5 C18         11.3690     1.5790    -5.0940 c6         1 GGQ       0.217300
      6 C20          9.6700     7.0460    -9.6350 cc         1 GGQ      -0.086300
      7 C22         11.5220     6.5750   -11.3310 c3         1 GGQ      -0.152400
      8 C23         12.9090     6.9630   -11.8850 c3         1 GGQ       0.296000
      9 C01          9.1330     9.3790   -11.8970 c3         1 GGQ      -0.190100
     10 C02          8.0680     8.7010   -11.0340 c          1 GGQ       0.610700
     11 C04          8.3950     7.6210   -10.0210 cc         1 GGQ      -0.256600
     12 C05          7.3990     7.0010    -9.2820 cd         1 GGQ      -0.072300
     13 C06          5.8990     7.1910    -9.2610 c3         1 GGQ      -0.032800
     14 C08          9.3860     6.0730    -8.6890 cd         1 GGQ      -0.208500
     15 C09         10.2410     5.1450    -7.9700 cd         1 GGQ       0.404500
     16 C10         11.5980     5.0130    -8.1720 cc         1 GGQ      -0.275000
     17 F24         13.2600     6.1450   -12.9020 f          1 GGQ      -0.120333
     18 F25         13.8600     6.8680   -10.9280 f          1 GGQ      -0.120333
     19 F26         12.9100     8.2320   -12.3540 f          1 GGQ      -0.120333
     20 N07          8.0170     6.0660    -8.4650 na         1 GGQ      -0.076000
     21 N13         10.3550     2.5940    -5.5330 nh         1 GGQ      -0.761300
     22 N16          9.7500     0.6540    -3.3550 n7         1 GGQ      -0.859400
     23 N19          9.6960     4.2910    -7.0250 nd         1 GGQ      -0.766000
     24 O03          6.9150     9.0770   -11.2100 o          1 GGQ      -0.558100
     25 S11         12.2570     3.7910    -7.1260 ss         1 GGQ      -0.093400
     26 H142         8.2530     3.0620    -5.3430 h1         1 GGQ       0.057700
     27 H141         8.6060     1.4160    -5.8760 h1         1 GGQ       0.057700
     28 H152         8.9160     2.5820    -3.0500 h1         1 GGQ       0.043700
     29 H151         7.7510     1.3550    -3.5750 h1         1 GGQ       0.043700
     30 H172        11.8440     0.2770    -3.3980 h1         1 GGQ       0.043700
     31 H171        11.3940     1.9280    -2.9420 h1         1 GGQ       0.043700
     32 H182        11.3230     0.7050    -5.7590 h1         1 GGQ       0.057700
     33 H181        12.3910     1.9760    -5.1580 h1         1 GGQ       0.057700
     34 H222        10.7930     6.6160   -12.1480 hc         1 GGQ       0.082700
     35 H221        11.5500     5.5260   -11.0160 hc         1 GGQ       0.082700
     36 H012         8.6890    10.0020   -12.6820 hc         1 GGQ       0.057367
     37 H013         9.7620    10.0030   -11.2540 hc         1 GGQ       0.057367
     38 H011         9.8120     8.6390   -12.3240 hc         1 GGQ       0.057367
     39 H061         5.4610     6.9900   -10.2460 hc         1 GGQ       0.057033
     40 H062         5.4170     6.5140    -8.5460 hc         1 GGQ       0.057033
     41 H063         5.6340     8.2140    -8.9710 hc         1 GGQ       0.057033
     42 H101        12.2680     5.5080    -8.8510 h4         1 GGQ       0.165000
     43 H212        11.7570     7.4400    -9.3330 hc         1 GGQ       0.063200
     44 H211        11.0560     8.5100   -10.4330 hc         1 GGQ       0.063200
     45 H071         7.5480     5.4500    -7.8080 hn         1 GGQ       0.365000
     46 H161         9.6490     0.4370    -2.3540 hn         1 GGQ       0.419000
     47 C21         11.0330     7.4590   -10.1520 c3         1 GGQ      -0.005100
@<TRIPOS>BOND
     1     1    21 1   
     2     1    23 2   
     3     1    25 1   
     4     2     3 1   
     5     2    21 1   
     6     2    26 1   
     7     2    27 1   
     8     3    22 1   
     9     3    28 1   
    10     3    29 1   
    11     4     5 1   
    12     4    22 1   
    13     4    30 1   
    14     4    31 1   
    15     5    21 1   
    16     5    32 1   
    17     5    33 1   
    18     6    11 1   
    19     6    14 2   
    20     6    47 1   
    21     7     8 1   
    22     7    34 1   
    23     7    35 1   
    24     7    47 1   
    25     8    17 1   
    26     8    18 1   
    27     8    19 1   
    28     9    10 1   
    29     9    36 1   
    30     9    37 1   
    31     9    38 1   
    32    10    11 1   
    33    10    24 2   
    34    11    12 2   
    35    12    13 1   
    36    12    20 1   
    37    13    39 1   
    38    13    40 1   
    39    13    41 1   
    40    14    15 1   
    41    14    20 1   
    42    15    16 2   
    43    15    23 1   
    44    16    25 1   
    45    16    42 1   
    46    20    45 1   
    47    22    46 1   
    48    43    47 1   
    49    44    47 1   
@<TRIPOS>SUBSTRUCTURE
     1 GGQ         1 TEMP              0 ****  ****    0 ROOT
