@<TRIPOS>MOLECULE
GGQ
   47    49     1     0     0
SMALL
abcg2


@<TRIPOS>ATOM
      1 C12         10.5530     3.3720    -6.6100 cc         1 GGQ       0.726300
      2 C14          8.9290     2.4930    -5.0530 c6         1 GGQ       0.217300
      3 C15          8.8960     2.1810    -3.5690 c6         1 GGQ       0.145800
      4 C17         11.0900     1.2810    -3.6350 c6         1 GGQ       0.145800
      5 C18         11.2080     1.5610    -5.1220 c6         1 GGQ       0.217300
      6 C20          9.6960     6.9190    -9.7040 cc         1 GGQ      -0.086300
      7 C22         11.4820     6.7630   -11.4540 c3         1 GGQ      -0.152400
      8 C23         12.8830     7.1240   -11.8600 c3         1 GGQ       0.296000
      9 C01          9.1810     9.6020   -11.3190 c3         1 GGQ      -0.190100
     10 C02          8.0920     8.6590   -10.8710 c          1 GGQ       0.610700
     11 C04          8.4250     7.4860   -10.0650 cc         1 GGQ      -0.256600
     12 C05          7.4390     6.7090    -9.4510 cd         1 GGQ      -0.072300
     13 C06          5.9550     6.8020    -9.4400 c3         1 GGQ      -0.032800
     14 C08          9.4280     5.8310    -8.9050 cd         1 GGQ      -0.208500
     15 C09         10.2670     4.8620    -8.2210 cd         1 GGQ       0.404500
     16 C10         11.5480     4.5190    -8.5190 cc         1 GGQ      -0.275000
     17 F24         13.2000     6.6280   -13.0660 f          1 GGQ      -0.120333
     18 F25         13.8010     6.6560   -10.9970 f          1 GGQ      -0.120333
     19 F26         13.0740     8.4520   -11.9330 f          1 GGQ      -0.120333
     20 N07          8.0670     5.7440    -8.7670 na         1 GGQ      -0.076000
     21 N13         10.3060     2.6320    -5.5090 nh         1 GGQ      -0.761300
     22 N16          9.7070     1.0100    -3.2990 n7         1 GGQ      -0.859400
     23 N19          9.7090     4.1980    -7.1550 nd         1 GGQ      -0.766000
     24 O03          6.9320     8.9000   -11.1700 o          1 GGQ      -0.558100
     25 S11         12.1090     3.3210    -7.4070 ss         1 GGQ      -0.093400
     26 H142         8.3960     3.4210    -5.2480 h1         1 GGQ       0.057700
     27 H141         8.4280     1.6940    -5.6130 h1         1 GGQ       0.057700
     28 H152         9.2320     3.0690    -3.0120 h1         1 GGQ       0.043700
     29 H151         7.8620     1.9850    -3.2800 h1         1 GGQ       0.043700
     30 H172        11.7040     0.4110    -3.3980 h1         1 GGQ       0.043700
     31 H171        11.5030     2.1380    -3.0810 h1         1 GGQ       0.043700
     32 H182        10.9890     0.6500    -5.6940 h1         1 GGQ       0.057700
     33 H181        12.2390     1.8500    -5.3320 h1         1 GGQ       0.057700
     34 H222        10.8010     7.1040   -12.2370 hc         1 GGQ       0.082700
     35 H221        11.4050     5.6740   -11.4340 hc         1 GGQ       0.082700
     36 H012         8.7440    10.4420   -11.8540 hc         1 GGQ       0.057367
     37 H013         9.7420     9.9860   -10.4660 hc         1 GGQ       0.057367
     38 H011         9.8930     9.1110   -11.9830 hc         1 GGQ       0.057367
     39 H061         5.5360     6.6340   -10.4320 hc         1 GGQ       0.057033
     40 H062         5.5330     6.0570    -8.7660 hc         1 GGQ       0.057033
     41 H063         5.6170     7.7840    -9.1130 hc         1 GGQ       0.057033
     42 H101        12.1840     4.8520    -9.3200 h4         1 GGQ       0.165000
     43 H212        11.7750     7.0290    -9.3260 hc         1 GGQ       0.063200
     44 H211        11.1440     8.4360   -10.1260 hc         1 GGQ       0.063200
     45 H071         7.6090     5.0430    -8.2020 hn         1 GGQ       0.365000
     46 H161         9.6350     0.7590    -2.3220 hn         1 GGQ       0.419000
     47 C21         11.0730     7.3500   -10.0980 c3         1 GGQ      -0.005100
@<TRIPOS>BOND
     1     1    21 1   
     2     1    23 2   
     3     1    25 1   
     4     2     3 1   
     5     2    21 1   
     6     2    26 1   
     7     2    27 1   
     8     3    22 1   
     9     3    28 1   
    10     3    29 1   
    11     4     5 1   
    12     4    22 1   
    13     4    30 1   
    14     4    31 1   
    15     5    21 1   
    16     5    32 1   
    17     5    33 1   
    18     6    11 1   
    19     6    14 2   
    20     6    47 1   
    21     7     8 1   
    22     7    34 1   
    23     7    35 1   
    24     7    47 1   
    25     8    17 1   
    26     8    18 1   
    27     8    19 1   
    28     9    10 1   
    29     9    36 1   
    30     9    37 1   
    31     9    38 1   
    32    10    11 1   
    33    10    24 2   
    34    11    12 2   
    35    12    13 1   
    36    12    20 1   
    37    13    39 1   
    38    13    40 1   
    39    13    41 1   
    40    14    15 1   
    41    14    20 1   
    42    15    16 2   
    43    15    23 1   
    44    16    25 1   
    45    16    42 1   
    46    20    45 1   
    47    22    46 1   
    48    43    47 1   
    49    44    47 1   
@<TRIPOS>SUBSTRUCTURE
     1 GGQ         1 TEMP              0 ****  ****    0 ROOT
