@<TRIPOS>MOLECULE
GGT
  114   122     1     0     0
SMALL
abcg2


@<TRIPOS>ATOM
      1 O44         33.0240    19.7870    21.9960 o          1 GGT      -0.487100
      2 C48         32.4250    19.5610    20.9660 c          1 GGT       0.571100
      3 C47         30.9610    19.2140    20.9700 c3         1 GGT      -0.201100
      4 C44         33.1680    19.6560    19.6230 c6         1 GGT       0.026000
      5 O43         34.5550    19.5060    19.9000 oh         1 GGT      -0.692000
      6 C43         32.9600    21.0960    19.0330 c6         1 GGT       0.155300
      7 O42         31.5890    21.4770    18.9510 oh         1 GGT      -0.643000
      8 C42         33.5790    21.1840    17.6420 c6         1 GGT      -0.099400
      9 C45         32.7030    18.5940    18.6110 c6         1 GGT       0.147300
     10 C46         32.9790    17.1640    19.0290 c3         1 GGT      -0.089100
     11 O41         33.4330    18.7850    17.3810 os         1 GGT      -0.494000
     12 C41         33.2170    20.0180    16.7390 c6         1 GGT       0.381300
     13 O11         31.8480    20.1780    16.3450 os         1 GGT      -0.414000
     14 C13         31.3950    19.4780    15.2480 c5         1 GGT       0.408000
     15 C14         29.8670    19.7000    15.1260 cx         1 GGT       0.027000
     16 C17         29.2560    20.7310    14.3040 cx         1 GGT       0.122600
     17 O12         29.2740    20.8180    15.7510 op         1 GGT      -0.395000
     18 C15         29.3130    18.2890    15.3530 c5         1 GGT       0.373000
     19 O8          30.2940    17.7180    16.2170 os         1 GGT      -0.425000
     20 C12         31.4150    17.9430    15.3540 c5         1 GGT       0.077300
     21 C16         27.9200    18.1760    15.9540 c3         1 GGT       0.425300
     22 O9          27.6400    16.8510    16.3300 os         1 GGT      -0.457000
     23 C33         27.7030    16.6080    17.7380 c3         1 GGT       0.148400
     24 O10         27.0250    18.6090    14.9820 os         1 GGT      -0.457000
     25 C32         25.7190    18.8830    15.4920 c3         1 GGT       0.148400
     26 O7          29.4650    17.5670    14.1430 os         1 GGT      -0.416000
     27 C11         30.9150    17.3760    14.0200 c5         1 GGT       0.184600
     28 C7          31.4690    18.0620    12.8080 ca         1 GGT      -0.175300
     29 C6          31.4060    17.4300    11.5370 ca         1 GGT       0.004700
     30 C31         30.7580    16.0830    11.3880 c3         1 GGT      -0.059800
     31 O6          32.1350    19.9510    14.1220 os         1 GGT      -0.416100
     32 C8          32.0570    19.3030    12.9180 ca         1 GGT       0.188100
     33 C25         32.6400    19.9840    11.8080 ca         1 GGT      -0.142000
     34 C26         32.5630    19.3300    10.5480 ca         1 GGT       0.035000
     35 C5          31.9450    18.0650    10.4470 ca         1 GGT      -0.140000
     36 C10         33.1320    19.9590     9.4090 ca         1 GGT       0.058100
     37 O4          33.0450    19.3240     8.1910 os         1 GGT      -0.371100
     38 C30         31.8000    19.5200     7.4980 c3         1 GGT       0.141900
     39 C28         33.8240    21.1380     9.5140 ca         1 GGT      -0.014300
     40 C27         33.9380    21.8020    10.7770 ca         1 GGT      -0.221600
     41 C9          33.3120    21.2460    11.9000 ca         1 GGT       0.240100
     42 O5          33.3490    21.9230    13.0590 oh         1 GGT      -0.504100
     43 C4          34.4900    21.6890     8.2720 c6         1 GGT       0.228600
     44 C3          35.6290    22.6290     8.6210 c6         1 GGT      -0.131400
     45 C2          35.1310    23.7040     9.5760 c6         1 GGT       0.071300
     46 O2          36.1010    24.7050     9.8290 oh         1 GGT      -0.629000
     47 C1          34.7300    23.0530    10.8920 c          1 GGT       0.590700
     48 O3          35.0750    23.5500    11.9500 o          1 GGT      -0.475100
     49 O1          33.4730    22.3520     7.4820 os         1 GGT      -0.515000
     50 C34         33.6480    22.2800     6.0730 c6         1 GGT       0.378300
     51 O16         34.7270    23.0770     5.6260 os         1 GGT      -0.473000
     52 C21         34.5540    24.4940     5.8090 c6         1 GGT       0.157300
     53 C22         35.8180    25.1660     5.3170 c3         1 GGT      -0.089100
     54 C23         33.2840    24.9850     5.1270 c6         1 GGT       0.117300
     55 C24         32.0450    24.1820     5.5720 c6         1 GGT       0.187000
     56 O14         31.7940    24.5080     6.9500 oh         1 GGT      -0.670000
     57 C20         30.8080    24.6000     4.7850 c3         1 GGT      -0.083100
     58 C29         32.3400    22.6910     5.4110 c6         1 GGT      -0.126400
     59 O15         33.4170    24.8230     3.6950 os         1 GGT      -0.450100
     60 C19         33.5180    25.9160     2.9180 c          1 GGT       0.591100
     61 O13         33.5050    27.0500     3.3420 o          1 GGT      -0.487000
     62 C18         33.6670    25.5550     1.4690 c3         1 GGT      -0.153100
     63 H47         30.5230    19.5080    21.9220 hc         1 GGT       0.068700
     64 H47A        30.4310    19.6810    20.1410 hc         1 GGT       0.068700
     65 H47B        30.8510    18.1330    20.8540 hc         1 GGT       0.068700
     66 HO43        34.9980    19.2840    19.0700 ho         1 GGT       0.515000
     67 H43         33.4960    21.7730    19.7020 h1         1 GGT       0.061700
     68 HO42        31.3320    21.9050    19.7760 ho         1 GGT       0.444000
     69 H42         33.2850    22.1230    17.1740 hc         1 GGT       0.080700
     70 H42A        34.6660    21.1900    17.7350 hc         1 GGT       0.080700
     71 H45         31.6420    18.7350    18.4110 h1         1 GGT       0.080700
     72 H46         32.6370    16.4860    18.2470 hc         1 GGT       0.050700
     73 H46A        34.0460    17.0080    19.1850 hc         1 GGT       0.050700
     74 H46B        32.4560    16.9100    19.9510 hc         1 GGT       0.050700
     75 H41         33.8480    19.9950    15.8520 h2         1 GGT       0.087700
     76 H17         29.8950    21.4490    13.8030 h1         1 GGT       0.098200
     77 H17A        28.2810    20.5470    13.8710 h1         1 GGT       0.098200
     78 H12         32.3210    17.5040    15.7470 h1         1 GGT       0.137700
     79 H16         27.8780    18.8260    16.8370 h2         1 GGT       0.053700
     80 H33         27.4500    15.5590    17.8840 h1         1 GGT       0.038867
     81 H33A        28.7060    16.7970    18.1290 h1         1 GGT       0.038867
     82 H33B        26.9820    17.2350    18.2700 h1         1 GGT       0.038867
     83 H32         25.7680    19.6470    16.2730 h1         1 GGT       0.038867
     84 H32A        25.1270    19.2490    14.6570 h1         1 GGT       0.038867
     85 H32B        25.2600    17.9780    15.8960 h1         1 GGT       0.038867
     86 H11         31.0950    16.3050    13.9760 h1         1 GGT       0.094700
     87 H31         30.7380    15.7840    10.3420 hc         1 GGT       0.054700
     88 H31A        31.2980    15.3190    11.9520 hc         1 GGT       0.054700
     89 H31B        29.7320    16.0950    11.7640 hc         1 GGT       0.054700
     90 H5          31.9160    17.5800     9.4820 ha         1 GGT       0.133000
     91 H30         30.9850    18.9980     8.0020 h1         1 GGT       0.042033
     92 H30A        31.5690    20.5820     7.4350 h1         1 GGT       0.042033
     93 H30B        31.9370    19.1100     6.5000 h1         1 GGT       0.042033
     94 HO5         32.8640    21.4180    13.7380 ho         1 GGT       0.497000
     95 H4          34.8670    20.8550     7.6800 h1         1 GGT       0.071700
     96 H3          36.4300    22.0570     9.0980 hc         1 GGT       0.070700
     97 H3A         36.0350    23.0770     7.7160 hc         1 GGT       0.070700
     98 H2          34.2210    24.1590     9.1640 h1         1 GGT       0.058700
     99 HO2         36.2930    25.1390     8.9880 ho         1 GGT       0.440000
    100 H1          33.9220    21.2590     5.8010 h2         1 GGT       0.078700
    101 H6          34.4310    24.7060     6.8750 h1         1 GGT       0.049700
    102 H9          36.6750    24.7940     5.8800 hc         1 GGT       0.051033
    103 H9'A        35.9840    24.9620     4.2590 hc         1 GGT       0.051033
    104 H9'B        35.7490    26.2440     5.4610 hc         1 GGT       0.051033
    105 H10         33.1300    26.0380     5.3550 h1         1 GGT       0.096700
    106 H14         32.3320    23.9200     7.5040 ho         1 GGT       0.467000
    107 H8          29.9180    24.3360     5.3570 hc         1 GGT       0.049367
    108 H8'A        30.8000    25.6770     4.6090 hc         1 GGT       0.049367
    109 H8'B        30.7630    24.0960     3.8200 hc         1 GGT       0.049367
    110 H13         32.4300    22.4590     4.3490 hc         1 GGT       0.073700
    111 H2'A        31.5150    22.1040     5.8130 hc         1 GGT       0.073700
    112 H7          33.0020    26.1830     0.8760 hc         1 GGT       0.071033
    113 H7'A        34.6930    25.7750     1.1650 hc         1 GGT       0.071033
    114 H7'B        33.4560    24.5050     1.2890 hc         1 GGT       0.071033
@<TRIPOS>BOND
     1     1     2 2   
     2     2     3 1   
     3     2     4 1   
     4     3    63 1   
     5     3    64 1   
     6     3    65 1   
     7     4     5 1   
     8     4     6 1   
     9     4     9 1   
    10     5    66 1   
    11     6     7 1   
    12     6     8 1   
    13     6    67 1   
    14     7    68 1   
    15     8    12 1   
    16     8    69 1   
    17     8    70 1   
    18     9    10 1   
    19     9    11 1   
    20     9    71 1   
    21    10    72 1   
    22    10    73 1   
    23    10    74 1   
    24    11    12 1   
    25    12    13 1   
    26    12    75 1   
    27    13    14 1   
    28    14    15 1   
    29    14    20 1   
    30    14    31 1   
    31    15    16 1   
    32    15    17 1   
    33    15    18 1   
    34    16    17 1   
    35    16    76 1   
    36    16    77 1   
    37    18    19 1   
    38    18    21 1   
    39    18    26 1   
    40    19    20 1   
    41    20    27 1   
    42    20    78 1   
    43    21    22 1   
    44    21    24 1   
    45    21    79 1   
    46    22    23 1   
    47    23    80 1   
    48    23    81 1   
    49    23    82 1   
    50    24    25 1   
    51    25    83 1   
    52    25    84 1   
    53    25    85 1   
    54    26    27 1   
    55    27    28 1   
    56    27    86 1   
    57    28    29 ar  
    58    28    32 ar  
    59    29    30 1   
    60    29    35 ar  
    61    30    87 1   
    62    30    88 1   
    63    30    89 1   
    64    31    32 1   
    65    32    33 ar  
    66    33    34 ar  
    67    33    41 ar  
    68    34    35 ar  
    69    34    36 ar  
    70    35    90 1   
    71    36    37 1   
    72    36    39 ar  
    73    37    38 1   
    74    38    91 1   
    75    38    92 1   
    76    38    93 1   
    77    39    40 ar  
    78    39    43 1   
    79    40    41 ar  
    80    40    47 1   
    81    41    42 1   
    82    42    94 1   
    83    43    44 1   
    84    43    49 1   
    85    43    95 1   
    86    44    45 1   
    87    44    96 1   
    88    44    97 1   
    89    45    46 1   
    90    45    47 1   
    91    45    98 1   
    92    46    99 1   
    93    47    48 2   
    94    49    50 1   
    95    50    51 1   
    96    50    58 1   
    97    50   100 1   
    98    51    52 1   
    99    52    53 1   
   100    52    54 1   
   101    52   101 1   
   102    53   102 1   
   103    53   103 1   
   104    53   104 1   
   105    54    55 1   
   106    54    59 1   
   107    54   105 1   
   108    55    56 1   
   109    55    57 1   
   110    55    58 1   
   111    56   106 1   
   112    57   107 1   
   113    57   108 1   
   114    57   109 1   
   115    58   110 1   
   116    58   111 1   
   117    59    60 1   
   118    60    61 2   
   119    60    62 1   
   120    62   112 1   
   121    62   113 1   
   122    62   114 1   
@<TRIPOS>SUBSTRUCTURE
     1 GGT         1 TEMP              0 ****  ****    0 ROOT
