@<TRIPOS>MOLECULE
GGT
  114   122     1     0     0
SMALL
No Charge or Current Charge


@<TRIPOS>ATOM
      1 O44         32.9510    19.5240    22.2040 o          1 GGT      -0.487100
      2 C48         32.3580    19.7000    21.1440 c          1 GGT       0.571100
      3 C47         30.8420    19.9500    21.1850 c3         1 GGT      -0.201100
      4 C44         33.1200    19.6130    19.7570 c6         1 GGT       0.026000
      5 O43         34.4860    19.1290    19.9330 oh         1 GGT      -0.692000
      6 C43         33.1640    21.0120    19.0370 c6         1 GGT       0.155300
      7 O42         31.8580    21.5840    18.8740 oh         1 GGT      -0.643000
      8 C42         33.8700    20.9060    17.6510 c6         1 GGT      -0.099400
      9 C45         32.4020    18.6550    18.7460 c6         1 GGT       0.147300
     10 C46         32.1990    17.2090    19.2730 c3         1 GGT      -0.089100
     11 O41         33.2260    18.5390    17.5640 os         1 GGT      -0.494000
     12 C41         33.3270    19.7470    16.7770 c6         1 GGT       0.381300
     13 O11         32.0480    20.0960    16.2160 os         1 GGT      -0.414000
     14 C13         31.5720    19.3900    15.0430 c5         1 GGT       0.408000
     15 C14         30.0640    19.7130    14.8880 cx         1 GGT       0.027000
     16 C17         29.5930    20.4950    13.6890 cx         1 GGT       0.122600
     17 O12         29.4650    21.0280    15.0340 op         1 GGT      -0.395000
     18 C15         29.3520    18.3780    15.1850 c5         1 GGT       0.373000
     19 O8          30.2770    17.7460    16.0880 os         1 GGT      -0.425000
     20 C12         31.4720    17.8410    15.2800 c5         1 GGT       0.077300
     21 C16         27.8540    18.4940    15.7180 c3         1 GGT       0.425300
     22 O9          27.7730    18.2340    17.1390 os         1 GGT      -0.457000
     23 C33         28.2660    19.2930    17.9800 c3         1 GGT       0.148400
     24 O10         27.0270    17.5000    15.0730 os         1 GGT      -0.457000
     25 C32         25.6170    17.6240    15.3250 c3         1 GGT       0.148400
     26 O7          29.5100    17.5420    14.0130 os         1 GGT      -0.416000
     27 C11         30.9240    17.2200    13.9590 c5         1 GGT       0.184600
     28 C7          31.5550    17.8410    12.7140 ca         1 GGT      -0.175300
     29 C6          31.4220    17.1560    11.4840 ca         1 GGT       0.004700
     30 C31         30.6750    15.8270    11.3770 c3         1 GGT      -0.059800
     31 O6          32.3990    19.8020    13.9220 os         1 GGT      -0.416100
     32 C8          32.2450    19.0800    12.7460 ca         1 GGT       0.188100
     33 C25         32.8250    19.6240    11.5550 ca         1 GGT      -0.142000
     34 C26         32.6790    18.9150    10.3400 ca         1 GGT       0.035000
     35 C5          31.9840    17.6940    10.3220 ca         1 GGT      -0.140000
     36 C10         33.2360    19.4190     9.1420 ca         1 GGT       0.058100
     37 O4          33.0760    18.7290     7.9590 os         1 GGT      -0.371100
     38 C30         31.9230    19.0030     7.1450 c3         1 GGT       0.141900
     39 C28         33.9600    20.6260     9.1390 ca         1 GGT      -0.014300
     40 C27         34.0990    21.3670    10.3350 ca         1 GGT      -0.221600
     41 C9          33.5450    20.8580    11.5340 ca         1 GGT       0.240100
     42 O5          33.7440    21.5480    12.6890 oh         1 GGT      -0.504100
     43 C4          34.6060    21.1400     7.8460 c6         1 GGT       0.228600
     44 C3          35.9940    21.7350     8.1590 c6         1 GGT      -0.131400
     45 C2          35.8880    22.9170     9.1470 c6         1 GGT       0.071300
     46 O2          37.2010    23.2090     9.6830 oh         1 GGT      -0.629000
     47 C1          34.8340    22.6990    10.2870 c          1 GGT       0.590700
     48 O3          34.5940    23.6150    11.0690 o          1 GGT      -0.475100
     49 O1          33.7100    22.1170     7.2690 os         1 GGT      -0.515000
     50 C34         34.0150    22.5250     5.9200 c6         1 GGT       0.378300
     51 O16         34.7130    23.7850     5.9560 os         1 GGT      -0.473000
     52 C21         33.9570    24.8960     6.5000 c6         1 GGT       0.157300
     53 C22         34.9220    26.1060     6.5560 c3         1 GGT      -0.089100
     54 C23         32.6440    25.1350     5.6770 c6         1 GGT       0.117300
     55 C24         31.8130    23.8060     5.6390 c6         1 GGT       0.187000
     56 O14         31.3870    23.4490     6.9580 oh         1 GGT      -0.670000
     57 C20         30.5290    23.9600     4.7760 c3         1 GGT      -0.083100
     58 C29         32.7110    22.6620     5.1000 c6         1 GGT      -0.126400
     59 O15         32.9290    25.5900     4.3250 os         1 GGT      -0.450100
     60 C19         33.0290    26.9210     4.0220 c          1 GGT       0.591100
     61 O13         32.8130    27.8320     4.8090 o          1 GGT      -0.487000
     62 C18         33.3610    27.1350     2.5540 c3         1 GGT      -0.153100
     63 H47         30.6790    21.0330    21.1880 hc         1 GGT       0.068700
     64 H47A        30.3400    19.6040    20.2780 hc         1 GGT       0.068700
     65 H47B        30.3890    19.5330    22.0910 hc         1 GGT       0.068700
     66 HO43        34.6840    18.6150    19.1130 ho         1 GGT       0.515000
     67 H43         33.7650    21.6890    19.6630 h1         1 GGT       0.061700
     68 HO42        31.9510    22.3550    18.2740 ho         1 GGT       0.444000
     69 H42         33.7880    21.8530    17.1020 hc         1 GGT       0.080700
     70 H42A        34.9460    20.7520    17.8020 hc         1 GGT       0.080700
     71 H45         31.4180    19.0500    18.4570 h1         1 GGT       0.080700
     72 H46         31.7350    16.5810    18.5040 hc         1 GGT       0.050700
     73 H46A        33.1490    16.7410    19.5560 hc         1 GGT       0.050700
     74 H46B        31.5400    17.1890    20.1480 hc         1 GGT       0.050700
     75 H41         34.0390    19.5820    15.9530 h2         1 GGT       0.087700
     76 H17         30.3080    21.0260    13.0600 h1         1 GGT       0.098200
     77 H17A        28.6550    20.2200    13.2060 h1         1 GGT       0.098200
     78 H12         32.3430    17.3350    15.7100 h1         1 GGT       0.137700
     79 H16         27.4730    19.4950    15.4820 h2         1 GGT       0.053700
     80 H33         28.1770    19.0120    19.0370 h1         1 GGT       0.038867
     81 H33A        29.3210    19.5130    17.7750 h1         1 GGT       0.038867
     82 H33B        27.6880    20.2140    17.8250 h1         1 GGT       0.038867
     83 H32         25.2470    18.6070    15.0060 h1         1 GGT       0.038867
     84 H32A        25.0620    16.8560    14.7710 h1         1 GGT       0.038867
     85 H32B        25.3920    17.4970    16.3920 h1         1 GGT       0.038867
     86 H11         31.0430    16.1280    13.9820 h1         1 GGT       0.094700
     87 H31         30.5720    15.4970    10.3360 hc         1 GGT       0.054700
     88 H31A        31.2030    15.0320    11.9160 hc         1 GGT       0.054700
     89 H31B        29.6610    15.9030    11.7870 hc         1 GGT       0.054700
     90 H5          31.8800    17.1420     9.3920 ha         1 GGT       0.133000
     91 H30         30.9990    18.7750     7.6910 h1         1 GGT       0.042033
     92 H30A        31.8970    20.0600     6.8530 h1         1 GGT       0.042033
     93 H30B        31.9450    18.3940     6.2330 h1         1 GGT       0.042033
     94 HO5         33.2820    21.0290    13.3910 ho         1 GGT       0.497000
     95 H4          34.7320    20.3070     7.1390 h1         1 GGT       0.071700
     96 H3          36.6170    20.9410     8.5960 hc         1 GGT       0.070700
     97 H3A         36.4990    22.0480     7.2360 hc         1 GGT       0.070700
     98 H2          35.5140    23.7870     8.5910 h1         1 GGT       0.058700
     99 HO2         37.7770    23.4540     8.9260 ho         1 GGT       0.440000
    100 H1          34.6510    21.7690     5.4340 h2         1 GGT       0.078700
    101 H6          33.6810    24.6600     7.5380 h1         1 GGT       0.049700
    102 H9          35.7770    25.8920     7.2080 hc         1 GGT       0.051033
    103 H9'A        35.3180    26.3540     5.5640 hc         1 GGT       0.051033
    104 H9'B        34.4190    26.9940     6.9560 hc         1 GGT       0.051033
    105 H10         32.0320    25.8920     6.1890 h1         1 GGT       0.096700
    106 H14         32.1320    22.9060     7.3200 ho         1 GGT       0.467000
    107 H8          29.9250    23.0450     4.7950 hc         1 GGT       0.049367
    108 H8'A        29.9010    24.7800     5.1420 hc         1 GGT       0.049367
    109 H8'B        30.7700    24.1700     3.7270 hc         1 GGT       0.049367
    110 H13         32.9730    22.8530     4.0510 hc         1 GGT       0.073700
    111 H2'A        32.1680    21.7080     5.1080 hc         1 GGT       0.073700
    112 H7          33.3990    28.1950     2.2790 hc         1 GGT       0.071033
    113 H7'A        34.3010    26.6190     2.3270 hc         1 GGT       0.071033
    114 H7'B        32.6390    26.5810     1.9440 hc         1 GGT       0.071033
@<TRIPOS>BOND
     1     1     2 2   
     2     2     3 1   
     3     2     4 1   
     4     3    63 1   
     5     3    64 1   
     6     3    65 1   
     7     4     5 1   
     8     4     6 1   
     9     4     9 1   
    10     5    66 1   
    11     6     7 1   
    12     6     8 1   
    13     6    67 1   
    14     7    68 1   
    15     8    12 1   
    16     8    69 1   
    17     8    70 1   
    18     9    10 1   
    19     9    11 1   
    20     9    71 1   
    21    10    72 1   
    22    10    73 1   
    23    10    74 1   
    24    11    12 1   
    25    12    13 1   
    26    12    75 1   
    27    13    14 1   
    28    14    15 1   
    29    14    20 1   
    30    14    31 1   
    31    15    16 1   
    32    15    17 1   
    33    15    18 1   
    34    16    17 1   
    35    16    76 1   
    36    16    77 1   
    37    18    19 1   
    38    18    21 1   
    39    18    26 1   
    40    19    20 1   
    41    20    27 1   
    42    20    78 1   
    43    21    22 1   
    44    21    24 1   
    45    21    79 1   
    46    22    23 1   
    47    23    80 1   
    48    23    81 1   
    49    23    82 1   
    50    24    25 1   
    51    25    83 1   
    52    25    84 1   
    53    25    85 1   
    54    26    27 1   
    55    27    28 1   
    56    27    86 1   
    57    28    29 ar  
    58    28    32 ar  
    59    29    30 1   
    60    29    35 ar  
    61    30    87 1   
    62    30    88 1   
    63    30    89 1   
    64    31    32 1   
    65    32    33 ar  
    66    33    34 ar  
    67    33    41 ar  
    68    34    35 ar  
    69    34    36 ar  
    70    35    90 1   
    71    36    37 1   
    72    36    39 ar  
    73    37    38 1   
    74    38    91 1   
    75    38    92 1   
    76    38    93 1   
    77    39    40 ar  
    78    39    43 1   
    79    40    41 ar  
    80    40    47 1   
    81    41    42 1   
    82    42    94 1   
    83    43    44 1   
    84    43    49 1   
    85    43    95 1   
    86    44    45 1   
    87    44    96 1   
    88    44    97 1   
    89    45    46 1   
    90    45    47 1   
    91    45    98 1   
    92    46    99 1   
    93    47    48 2   
    94    49    50 1   
    95    50    51 1   
    96    50    58 1   
    97    50   100 1   
    98    51    52 1   
    99    52    53 1   
   100    52    54 1   
   101    52   101 1   
   102    53   102 1   
   103    53   103 1   
   104    53   104 1   
   105    54    55 1   
   106    54    59 1   
   107    54   105 1   
   108    55    56 1   
   109    55    57 1   
   110    55    58 1   
   111    56   106 1   
   112    57   107 1   
   113    57   108 1   
   114    57   109 1   
   115    58   110 1   
   116    58   111 1   
   117    59    60 1   
   118    60    61 2   
   119    60    62 1   
   120    62   112 1   
   121    62   113 1   
   122    62   114 1   
@<TRIPOS>SUBSTRUCTURE
     1 GGT         1 TEMP              0 ****  ****    0 ROOT
