@<TRIPOS>MOLECULE
GGU
   33    35     1     0     0
SMALL
No Charge or Current Charge


@<TRIPOS>ATOM
      1 C1          -5.3830    -1.4730    23.0780 ca         1 GGU       0.203100
      2 C2          -4.2800    -0.8000    22.5300 ca         1 GGU      -0.172000
      3 C3          -4.4640     0.2500    21.6200 ca         1 GGU      -0.054000
      4 C4          -5.7630     0.6280    21.2560 ca         1 GGU      -0.168000
      5 C5          -6.8720    -0.0370    21.8020 ca         1 GGU      -0.053000
      6 C6          -6.7160    -1.1020    22.7320 cp         1 GGU      -0.258500
      7 C9          -9.1840    -1.1220    23.4560 ca         1 GGU      -0.073000
      8 C10        -10.2920    -1.8080    24.0180 cp         1 GGU      -0.093000
      9 C14        -14.0910     0.2190    24.4960 ca         1 GGU      -0.101000
     10 N1          -7.8130    -3.0690    23.7150 nb         1 GGU      -0.349000
     11 O1          -5.1330    -2.4800    23.9570 oh         1 GGU      -0.555100
     12 C7          -7.9340    -1.7790    23.3070 cp         1 GGU       0.340500
     13 N2          -8.8510    -3.7490    24.2450 nb         1 GGU      -0.391000
     14 C8         -10.0530    -3.1590    24.3920 ca         1 GGU       0.562900
     15 N3         -10.9990    -3.9910    24.8960 nv         1 GGU      -1.070900
     16 C11        -11.6090    -1.1200    24.1880 cp         1 GGU      -0.046000
     17 C12        -12.2890    -1.1230    25.4310 ca         1 GGU      -0.100500
     18 C13        -13.5200    -0.4620    25.5830 ca         1 GGU      -0.107000
     19 C15        -13.4270     0.2450    23.2590 ca         1 GGU      -0.107000
     20 C16        -12.1950    -0.4150    23.1080 ca         1 GGU      -0.100500
     21 H1          -3.2730    -1.0970    22.8130 ha         1 GGU       0.129000
     22 H2          -3.6040     0.7660    21.1980 ha         1 GGU       0.113000
     23 H3          -5.9120     1.4380    20.5450 ha         1 GGU       0.115000
     24 H4          -7.8640     0.2750    21.4830 ha         1 GGU       0.103000
     25 H6         -15.0440     0.7310    24.6130 ha         1 GGU       0.117000
     26 H7          -5.9970    -2.9290    24.1180 ho         1 GGU       0.523000
     27 H8         -10.6800    -4.8430    25.3450 hn         1 GGU       0.494000
     28 H9         -11.8790    -3.5950    25.2060 hn         1 GGU       0.494000
     29 H10        -11.8490    -1.6260    26.2900 ha         1 GGU       0.118500
     30 H11        -14.0290    -0.4740    26.5450 ha         1 GGU       0.117500
     31 H12        -13.8650     0.7760    22.4170 ha         1 GGU       0.117500
     32 H13        -11.6920    -0.3900    22.1440 ha         1 GGU       0.118500
     33 H5          -9.2910    -0.0820    23.1660 ha         1 GGU       0.134000
@<TRIPOS>BOND
     1     1     2 ar  
     2     1     6 ar  
     3     1    11 1   
     4     2     3 ar  
     5     2    21 1   
     6     3     4 ar  
     7     3    22 1   
     8     4     5 ar  
     9     4    23 1   
    10     5     6 ar  
    11     5    24 1   
    12     6    12 1   
    13     7     8 ar  
    14     7    12 ar  
    15     7    33 1   
    16     8    14 ar  
    17     8    16 1   
    18     9    18 ar  
    19     9    19 ar  
    20     9    25 1   
    21    10    12 ar  
    22    10    13 ar  
    23    11    26 1   
    24    13    14 ar  
    25    14    15 1   
    26    15    27 1   
    27    15    28 1   
    28    16    17 ar  
    29    16    20 ar  
    30    17    18 ar  
    31    17    29 1   
    32    18    30 1   
    33    19    20 ar  
    34    19    31 1   
    35    20    32 1   
@<TRIPOS>SUBSTRUCTURE
     1 GGU         1 TEMP              0 ****  ****    0 ROOT
