@<TRIPOS>MOLECULE
GGU
   33    35     1     0     0
SMALL
abcg2


@<TRIPOS>ATOM
      1 C1          -5.4870    -1.6820    22.7890 ca         1 GGU       0.203100
      2 C2          -4.3870    -1.0410    22.2140 ca         1 GGU      -0.172000
      3 C3          -4.5050     0.2270    21.6780 ca         1 GGU      -0.054000
      4 C4          -5.7310     0.8840    21.7050 ca         1 GGU      -0.168000
      5 C5          -6.8220     0.2560    22.2730 ca         1 GGU      -0.053000
      6 C6          -6.7410    -1.0280    22.8250 cp         1 GGU      -0.258500
      7 C9          -9.1960    -1.0670    23.4860 ca         1 GGU      -0.073000
      8 C10        -10.2390    -1.7390    24.0550 cp         1 GGU      -0.093000
      9 C14        -14.0880     0.0820    24.3180 ca         1 GGU      -0.101000
     10 N1          -7.7690    -2.8860    23.9210 nb         1 GGU      -0.349000
     11 O1          -5.2950    -2.9070    23.2830 oh         1 GGU      -0.555100
     12 C7          -7.9250    -1.6730    23.4190 cp         1 GGU       0.340500
     13 N2          -8.7470    -3.5690    24.4620 nb         1 GGU      -0.391000
     14 C8          -9.9660    -3.0510    24.5330 ca         1 GGU       0.562900
     15 N3         -10.9340    -3.8470    25.0320 nv         1 GGU      -1.070900
     16 C11        -11.5800    -1.1280    24.1500 cp         1 GGU      -0.046000
     17 C12        -12.1930    -0.9430    25.3900 ca         1 GGU      -0.100500
     18 C13        -13.4400    -0.3400    25.4710 ca         1 GGU      -0.107000
     19 C15        -13.4810    -0.0960    23.0820 ca         1 GGU      -0.107000
     20 C16        -12.2340    -0.6980    22.9970 ca         1 GGU      -0.100500
     21 H1          -3.4370    -1.5600    22.1980 ha         1 GGU       0.129000
     22 H2          -3.6390     0.7040    21.2380 ha         1 GGU       0.113000
     23 H3          -5.8350     1.8760    21.2880 ha         1 GGU       0.115000
     24 H4          -7.7630     0.7890    22.2790 ha         1 GGU       0.103000
     25 H6         -15.0600     0.5530    24.3820 ha         1 GGU       0.117000
     26 H7          -6.1640    -3.2180    23.6510 ho         1 GGU       0.523000
     27 H8         -10.6580    -4.6980    25.4930 hn         1 GGU       0.494000
     28 H9         -11.8320    -3.4730    25.2820 hn         1 GGU       0.494000
     29 H10        -11.6870    -1.2510    26.2970 ha         1 GGU       0.118500
     30 H11        -13.9020    -0.1960    26.4390 ha         1 GGU       0.117500
     31 H12        -13.9810     0.2310    22.1790 ha         1 GGU       0.117500
     32 H13        -11.7670    -0.8420    22.0310 ha         1 GGU       0.118500
     33 H5          -9.3640    -0.0670    23.1120 ha         1 GGU       0.134000
@<TRIPOS>BOND
     1     1     2 ar  
     2     1     6 ar  
     3     1    11 1   
     4     2     3 ar  
     5     2    21 1   
     6     3     4 ar  
     7     3    22 1   
     8     4     5 ar  
     9     4    23 1   
    10     5     6 ar  
    11     5    24 1   
    12     6    12 1   
    13     7     8 ar  
    14     7    12 ar  
    15     7    33 1   
    16     8    14 ar  
    17     8    16 1   
    18     9    18 ar  
    19     9    19 ar  
    20     9    25 1   
    21    10    12 ar  
    22    10    13 ar  
    23    11    26 1   
    24    13    14 ar  
    25    14    15 1   
    26    15    27 1   
    27    15    28 1   
    28    16    17 ar  
    29    16    20 ar  
    30    17    18 ar  
    31    17    29 1   
    32    18    30 1   
    33    19    20 ar  
    34    19    31 1   
    35    20    32 1   
@<TRIPOS>SUBSTRUCTURE
     1 GGU         1 TEMP              0 ****  ****    0 ROOT
