@<TRIPOS>MOLECULE
GGV
  126   130     1     0     0
SMALL
bcc


@<TRIPOS>ATOM
      1 C           -9.4730     1.0790     2.1080 c3         1 GGV       0.144700
      2 N           -6.2770     2.1460     1.0830 ns         1 GGV      -0.557900
      3 O           -8.1240     1.5280     2.1170 os         1 GGV      -0.435900
      4 C3          -7.5300     1.6760     0.9270 c          1 GGV       0.754100
      5 O4          -8.0720     1.4380    -0.1310 o          1 GGV      -0.587000
      6 C6          -5.3480     2.2900    -0.0120 c3         1 GGV       0.052700
      7 C7          -4.1390     1.4060     0.2990 c          1 GGV       0.653100
      8 O8          -3.5590     1.4800     1.3730 o          1 GGV      -0.612100
      9 N9          -3.8000     0.5480    -0.6730 ns         1 GGV      -0.557900
     10 C10         -2.8210    -0.5210    -0.5430 c3         1 GGV       0.130700
     11 C11         -1.3900    -0.0060    -0.4020 c3         1 GGV      -0.124400
     12 C12         -0.9380     0.8820    -1.5540 c3         1 GGV       0.140100
     13 O13         -1.0010     0.2190    -2.7990 oh         1 GGV      -0.597800
     14 C14          0.4510     1.4720    -1.2880 c3         1 GGV       0.073700
     15 C15          0.8630     2.5150    -2.3370 c3         1 GGV      -0.045100
     16 C16          2.1890     3.1360    -1.9950 ca         1 GGV      -0.088300
     17 C17          3.3810     2.6110    -2.4900 ca         1 GGV      -0.121500
     18 C18          4.6060     3.1450    -2.1140 ca         1 GGV      -0.123000
     19 C19          4.6580     4.2170    -1.2350 ca         1 GGV      -0.126000
     20 C20          3.4770     4.7540    -0.7400 ca         1 GGV      -0.123000
     21 C21          2.2550     4.2150    -1.1170 ca         1 GGV      -0.121500
     22 N22          1.4620     0.4370    -1.2170 ns         1 GGV      -0.566900
     23 C23          2.2200     0.2030    -0.1290 c          1 GGV       0.663100
     24 O24          1.9920     0.6880     0.9670 o          1 GGV      -0.591100
     25 C25          3.4050    -0.7290    -0.3770 c3         1 GGV       0.055700
     26 N26          4.6280    -0.0340    -0.0460 n          1 GGV      -0.353000
     27 C27          4.9720     0.5960     1.1460 cc         1 GGV      -0.096400
     28 C28          6.1940     1.1210     0.9820 cd         1 GGV      -0.108400
     29 N29          6.5990     0.8490    -0.3120 n          1 GGV      -0.342000
     30 C30          7.9100     1.0580    -0.8580 c3         1 GGV       0.076700
     31 C31          8.7880    -0.1600    -0.6980 ca         1 GGV       0.390600
     32 C32          9.6850    -0.5410    -1.6870 ca         1 GGV      -0.227300
     33 C33         10.4750    -1.6550    -1.4540 ca         1 GGV      -0.092000
     34 C34         10.3390    -2.3520    -0.2620 ca         1 GGV      -0.228300
     35 C35          9.4030    -1.9030     0.6630 ca         1 GGV       0.389600
     36 N36          8.6590    -0.8260     0.4380 nb         1 GGV      -0.675000
     37 C37          9.1740    -2.5910     2.0040 c3         1 GGV       0.114500
     38 C38          9.6650    -1.6690     3.1170 c3         1 GGV      -0.096600
     39 C39          7.6860    -2.8950     2.1840 c3         1 GGV      -0.096600
     40 O40          9.9350    -3.7780     2.1000 oh         1 GGV      -0.594800
     41 C41          5.6440     0.1170    -0.9560 c          1 GGV       0.769500
     42 O42          5.6950    -0.3130    -2.1050 o          1 GGV      -0.682500
     43 C43          3.2570    -2.1280     0.2760 c3         1 GGV      -0.043000
     44 C44          1.9140    -2.7120    -0.1730 c3         1 GGV      -0.090100
     45 C45          4.3870    -3.0160    -0.2480 c3         1 GGV      -0.090100
     46 C46          3.3140    -2.1130     1.8030 c3         1 GGV      -0.090100
     47 C47         -3.1620    -1.5000     0.5970 c3         1 GGV      -0.051100
     48 C48         -4.6240    -1.8410     0.6470 ca         1 GGV      -0.070300
     49 C49         -5.2330    -2.5650    -0.3770 ca         1 GGV      -0.135500
     50 C50         -6.5930    -2.8240    -0.3580 ca         1 GGV      -0.098500
     51 C51         -7.3910    -2.3850     0.7000 cp         1 GGV      -0.144500
     52 C52         -6.7800    -1.6740     1.7310 ca         1 GGV      -0.098500
     53 C53         -5.4210    -1.4030     1.6990 ca         1 GGV      -0.135500
     54 C54         -8.8420    -2.6660     0.7080 cp         1 GGV       0.477800
     55 C55         -9.5750    -2.7120     1.8950 ca         1 GGV      -0.243300
     56 C56        -10.9350    -2.9630     1.8390 ca         1 GGV      -0.094000
     57 C57        -11.5300    -3.1720     0.6040 ca         1 GGV      -0.251300
     58 C58        -10.7190    -3.1280    -0.5200 ca         1 GGV       0.411200
     59 N59         -9.4180    -2.8830    -0.4750 nb         1 GGV      -0.669000
     60 C60         -4.9820     3.7690    -0.3040 c3         1 GGV      -0.045000
     61 C61         -4.4440     4.4910     0.9310 c3         1 GGV      -0.087767
     62 C62         -3.9280     3.8100    -1.4120 c3         1 GGV      -0.087767
     63 C63         -6.2460     4.4780    -0.7930 c3         1 GGV      -0.087767
     64 H          -10.1330     1.7930     1.6130 h1         1 GGV       0.048033
     65 HA          -9.5760     0.1060     1.6270 h1         1 GGV       0.048033
     66 HB          -9.7640     0.9930     3.1510 h1         1 GGV       0.048033
     67 HN          -5.9130     2.2370     2.0190 hn         1 GGV       0.340500
     68 H6          -5.8480     1.9060    -0.9040 h1         1 GGV       0.083700
     69 HN9         -4.3890     0.5140    -1.4880 hn         1 GGV       0.322500
     70 H10         -2.8930    -1.0730    -1.4820 h1         1 GGV       0.052700
     71 H11         -1.2900     0.5430     0.5360 hc         1 GGV       0.069700
     72 H11A        -0.7240    -0.8710    -0.3260 hc         1 GGV       0.069700
     73 H12         -1.6300     1.7250    -1.6340 h1         1 GGV       0.081700
     74 HO13        -0.5480    -0.6280    -2.7210 ho         1 GGV       0.399000
     75 H14          0.4190     1.9600    -0.3110 h1         1 GGV       0.093700
     76 H15          0.9020     2.0460    -3.3230 hc         1 GGV       0.059200
     77 H15A         0.0880     3.2840    -2.3850 hc         1 GGV       0.059200
     78 H17          3.3560     1.7750    -3.1790 ha         1 GGV       0.128500
     79 H18          5.5190     2.7220    -2.5110 ha         1 GGV       0.131500
     80 H19          5.6130     4.6330    -0.9410 ha         1 GGV       0.127000
     81 H20          3.5060     5.5940    -0.0580 ha         1 GGV       0.131500
     82 H21          1.3370     4.6380    -0.7230 ha         1 GGV       0.128500
     83 HN22         1.7890     0.0660    -2.0960 hn         1 GGV       0.310500
     84 H25          3.4810    -0.9150    -1.4510 h1         1 GGV       0.082700
     85 H27          4.3160     0.6360     1.9940 h4         1 GGV       0.196000
     86 H28          6.8090     1.6770     1.6680 h4         1 GGV       0.177000
     87 H30          7.8290     1.3370    -1.9090 h1         1 GGV       0.069700
     88 H30A         8.3610     1.9080    -0.3420 h1         1 GGV       0.069700
     89 H32          9.7560     0.0140    -2.6130 ha         1 GGV       0.144000
     90 H33         11.1870    -1.9860    -2.1990 ha         1 GGV       0.138000
     91 H34         10.9500    -3.2220    -0.0680 ha         1 GGV       0.152000
     92 H38          9.1380    -0.7180     3.0770 hc         1 GGV       0.047700
     93 H38A         9.4850    -2.1200     4.0950 hc         1 GGV       0.047700
     94 H38B        10.7340    -1.4700     3.0210 hc         1 GGV       0.047700
     95 H39          7.3330    -3.5960     1.4240 hc         1 GGV       0.047700
     96 H39A         7.5100    -3.3410     3.1650 hc         1 GGV       0.047700
     97 H39B         7.0870    -1.9890     2.1030 hc         1 GGV       0.047700
     98 HO40         9.5360    -4.4470     1.5330 ho         1 GGV       0.404000
     99 H44          1.8000    -2.6830    -1.2590 hc         1 GGV       0.040589
    100 H44A         1.8380    -3.7560     0.1350 hc         1 GGV       0.040589
    101 H44B         1.0680    -2.1840     0.2690 hc         1 GGV       0.040589
    102 H45          5.3660    -2.6550     0.0720 hc         1 GGV       0.040589
    103 H45A         4.2720    -4.0310     0.1360 hc         1 GGV       0.040589
    104 H45B         4.3860    -3.0710    -1.3380 hc         1 GGV       0.040589
    105 H46          2.5570    -1.4670     2.2440 hc         1 GGV       0.040589
    106 H46A         3.1420    -3.1240     2.1780 hc         1 GGV       0.040589
    107 H46B         4.2910    -1.7990     2.1720 hc         1 GGV       0.040589
    108 H47         -2.5670    -2.4030     0.4370 hc         1 GGV       0.062700
    109 H47A        -2.8510    -1.0830     1.5550 hc         1 GGV       0.062700
    110 H49         -4.6390    -2.9340    -1.2060 ha         1 GGV       0.134500
    111 H50         -7.0430    -3.3810    -1.1690 ha         1 GGV       0.141000
    112 H52         -7.3610    -1.3010     2.5640 ha         1 GGV       0.141000
    113 H53         -4.9730    -0.8350     2.5040 ha         1 GGV       0.134500
    114 H55         -9.0930    -2.5690     2.8520 ha         1 GGV       0.142000
    115 H56        -11.5200    -3.0040     2.7480 ha         1 GGV       0.136000
    116 H57        -12.5890    -3.3690     0.5110 ha         1 GGV       0.142000
    117 H58        -11.1420    -3.2970    -1.5040 h4         1 GGV       0.019100
    118 H61         -3.5210     4.0450     1.2970 hc         1 GGV       0.039367
    119 H61A        -4.2320     5.5320     0.6820 hc         1 GGV       0.039367
    120 H61B        -5.1690     4.4990     1.7480 hc         1 GGV       0.039367
    121 H62         -4.2450     3.2530    -2.2960 hc         1 GGV       0.039367
    122 H62A        -3.7430     4.8390    -1.7210 hc         1 GGV       0.039367
    123 H62B        -2.9730     3.4010    -1.0780 hc         1 GGV       0.039367
    124 H63         -7.0290     4.4790    -0.0340 hc         1 GGV       0.039367
    125 H63A        -6.0260     5.5180    -1.0380 hc         1 GGV       0.039367
    126 H63B        -6.6460     4.0020    -1.6910 hc         1 GGV       0.039367
@<TRIPOS>BOND
     1     1     3 1   
     2     1    64 1   
     3     1    65 1   
     4     1    66 1   
     5     2     4 1   
     6     2     6 1   
     7     2    67 1   
     8     3     4 1   
     9     4     5 2   
    10     6     7 1   
    11     6    60 1   
    12     6    68 1   
    13     7     8 2   
    14     7     9 1   
    15     9    10 1   
    16     9    69 1   
    17    10    11 1   
    18    10    47 1   
    19    10    70 1   
    20    11    12 1   
    21    11    71 1   
    22    11    72 1   
    23    12    13 1   
    24    12    14 1   
    25    12    73 1   
    26    13    74 1   
    27    14    15 1   
    28    14    22 1   
    29    14    75 1   
    30    15    16 1   
    31    15    76 1   
    32    15    77 1   
    33    16    17 ar  
    34    16    21 ar  
    35    17    18 ar  
    36    17    78 1   
    37    18    19 ar  
    38    18    79 1   
    39    19    20 ar  
    40    19    80 1   
    41    20    21 ar  
    42    20    81 1   
    43    21    82 1   
    44    22    23 1   
    45    22    83 1   
    46    23    24 2   
    47    23    25 1   
    48    25    26 1   
    49    25    43 1   
    50    25    84 1   
    51    26    27 1   
    52    26    41 1   
    53    27    28 2   
    54    27    85 1   
    55    28    29 1   
    56    28    86 1   
    57    29    30 1   
    58    29    41 1   
    59    30    31 1   
    60    30    87 1   
    61    30    88 1   
    62    31    32 ar  
    63    31    36 ar  
    64    32    33 ar  
    65    32    89 1   
    66    33    34 ar  
    67    33    90 1   
    68    34    35 ar  
    69    34    91 1   
    70    35    36 ar  
    71    35    37 1   
    72    37    38 1   
    73    37    39 1   
    74    37    40 1   
    75    38    92 1   
    76    38    93 1   
    77    38    94 1   
    78    39    95 1   
    79    39    96 1   
    80    39    97 1   
    81    40    98 1   
    82    41    42 2   
    83    43    44 1   
    84    43    45 1   
    85    43    46 1   
    86    44    99 1   
    87    44   100 1   
    88    44   101 1   
    89    45   102 1   
    90    45   103 1   
    91    45   104 1   
    92    46   105 1   
    93    46   106 1   
    94    46   107 1   
    95    47    48 1   
    96    47   108 1   
    97    47   109 1   
    98    48    49 ar  
    99    48    53 ar  
   100    49    50 ar  
   101    49   110 1   
   102    50    51 ar  
   103    50   111 1   
   104    51    52 ar  
   105    51    54 1   
   106    52    53 ar  
   107    52   112 1   
   108    53   113 1   
   109    54    55 ar  
   110    54    59 ar  
   111    55    56 ar  
   112    55   114 1   
   113    56    57 ar  
   114    56   115 1   
   115    57    58 ar  
   116    57   116 1   
   117    58    59 ar  
   118    58   117 1   
   119    60    61 1   
   120    60    62 1   
   121    60    63 1   
   122    61   118 1   
   123    61   119 1   
   124    61   120 1   
   125    62   121 1   
   126    62   122 1   
   127    62   123 1   
   128    63   124 1   
   129    63   125 1   
   130    63   126 1   
@<TRIPOS>SUBSTRUCTURE
     1 GGV         1 TEMP              0 ****  ****    0 ROOT
