@<TRIPOS>MOLECULE
GGV
  126   130     1     0     0
SMALL
No Charge or Current Charge


@<TRIPOS>ATOM
      1 C           -9.8760     1.6440     2.7080 c3         1 GGV       0.167900
      2 N           -6.6530     2.1420     1.2780 ns         1 GGV      -0.490900
      3 O           -8.4650     1.8570     2.5220 os         1 GGV      -0.459100
      4 C3          -8.0060     1.9650     1.2450 c          1 GGV       0.638100
      5 O4          -8.6860     1.9060     0.2340 o          1 GGV      -0.538000
      6 C6          -5.7750     2.2110     0.0870 c3         1 GGV       0.052700
      7 C7          -4.5670     1.2530     0.3150 c          1 GGV       0.586100
      8 O8          -4.0240     1.1150     1.4050 o          1 GGV      -0.612100
      9 N9          -4.1950     0.5200    -0.7970 ns         1 GGV      -0.490900
     10 C10         -3.3280    -0.6690    -0.7950 c3         1 GGV       0.130700
     11 C11         -1.8410    -0.3230    -0.5290 c3         1 GGV      -0.124400
     12 C12         -1.2290     0.7040    -1.5140 c3         1 GGV       0.163300
     13 O13         -1.2050     0.1340    -2.8330 oh         1 GGV      -0.660000
     14 C14          0.2000     1.1590    -1.0900 c3         1 GGV       0.073700
     15 C15          0.7550     2.3390    -1.9300 c3         1 GGV      -0.045100
     16 C16          2.1940     2.6910    -1.5550 ca         1 GGV      -0.088300
     17 C17          3.2620     2.3180    -2.3960 ca         1 GGV      -0.103500
     18 C18          4.5900     2.5870    -2.0200 ca         1 GGV      -0.105000
     19 C19          4.8590     3.2290    -0.8000 ca         1 GGV      -0.108000
     20 C20          3.7990     3.6060     0.0420 ca         1 GGV      -0.105000
     21 C21          2.4710     3.3380    -0.3350 ca         1 GGV      -0.103500
     22 N22          1.1760     0.0540    -1.0830 ns         1 GGV      -0.499900
     23 C23          1.9960    -0.2480    -0.0110 c          1 GGV       0.596100
     24 O24          1.7890     0.2120     1.1050 o          1 GGV      -0.591100
     25 C25          3.1960    -1.1740    -0.3550 c3         1 GGV       0.055700
     26 N26          4.5020    -0.6140     0.0880 n          1 GGV      -0.286000
     27 C27          4.8660    -0.0550     1.3250 cc         1 GGV      -0.146400
     28 C28          6.1830     0.4230     1.2680 cd         1 GGV      -0.158400
     29 N29          6.7090     0.2010    -0.0060 n          1 GGV      -0.275000
     30 C30          8.0530     0.5380    -0.5080 c3         1 GGV       0.076700
     31 C31          9.0880    -0.5600    -0.2860 ca         1 GGV       0.325300
     32 C32          9.0870    -1.7180    -1.0840 ca         1 GGV      -0.144000
     33 C33         10.0500    -2.7110    -0.8510 ca         1 GGV      -0.074000
     34 C34         10.9800    -2.5030     0.1800 ca         1 GGV      -0.145000
     35 C35         10.9240    -1.3190     0.9470 ca         1 GGV       0.324300
     36 N36          9.9890    -0.3620     0.7070 nb         1 GGV      -0.675000
     37 C37         11.9630    -1.0750     2.0860 c3         1 GGV       0.137700
     38 C38         13.3600    -0.8240     1.4720 c3         1 GGV      -0.096600
     39 C39         11.5840     0.1050     3.0230 c3         1 GGV      -0.096600
     40 O40         12.0740    -2.2400     2.9250 oh         1 GGV      -0.657000
     41 C41          5.6610    -0.4490    -0.7650 c          1 GGV       0.560000
     42 O42          5.7430    -0.7960    -1.9350 o          1 GGV      -0.607000
     43 C43          2.9490    -2.6940     0.0780 c3         1 GGV      -0.043000
     44 C44          1.5580    -3.2720    -0.4010 c3         1 GGV      -0.090100
     45 C45          4.0590    -3.5790    -0.5530 c3         1 GGV      -0.090100
     46 C46          3.0160    -2.8570     1.6230 c3         1 GGV      -0.090100
     47 C47         -3.8610    -1.7750     0.1590 c3         1 GGV      -0.051100
     48 C48         -5.3860    -1.8930     0.1560 ca         1 GGV      -0.070300
     49 C49         -6.0700    -2.3020    -1.0010 ca         1 GGV      -0.117500
     50 C50         -7.4750    -2.3410    -1.0200 ca         1 GGV      -0.080500
     51 C51         -8.2440    -1.9750     0.1200 cp         1 GGV      -0.144500
     52 C52         -7.5290    -1.5740     1.2800 ca         1 GGV      -0.080500
     53 C53         -6.1260    -1.5380     1.2980 ca         1 GGV      -0.117500
     54 C54         -9.7520    -1.9920     0.0920 cp         1 GGV       0.412500
     55 C55        -10.5370    -2.0560     1.2740 ca         1 GGV      -0.160000
     56 C56        -11.9390    -2.0540     1.1920 ca         1 GGV      -0.076000
     57 C57        -12.5230    -1.9930    -0.0820 ca         1 GGV      -0.168000
     58 C58        -11.6900    -1.9460    -1.2110 ca         1 GGV       0.345900
     59 N59        -10.3410    -1.9510    -1.1280 nb         1 GGV      -0.669000
     60 C60         -5.3670     3.6880    -0.2730 c3         1 GGV      -0.045000
     61 C61         -4.5900     4.3630     0.8930 c3         1 GGV      -0.087767
     62 C62         -4.4710     3.7050    -1.5420 c3         1 GGV      -0.087767
     63 C63         -6.6380     4.5300    -0.5750 c3         1 GGV      -0.087767
     64 H          -10.4550     2.4780     2.2900 h1         1 GGV       0.048033
     65 HA         -10.2000     0.7170     2.2190 h1         1 GGV       0.048033
     66 HB         -10.1140     1.5670     3.7760 h1         1 GGV       0.048033
     67 HN          -6.2270     2.1380     2.1960 hn         1 GGV       0.340500
     68 H6          -6.3340     1.7990    -0.7630 h1         1 GGV       0.083700
     69 HN9         -4.7060     0.7140    -1.6500 hn         1 GGV       0.322500
     70 H10         -3.3900    -1.0830    -1.8100 h1         1 GGV       0.052700
     71 H11         -1.7430     0.0680     0.4910 hc         1 GGV       0.069700
     72 H11A        -1.2520    -1.2480    -0.5550 hc         1 GGV       0.069700
     73 H12         -1.8630     1.6010    -1.5090 h1         1 GGV       0.081700
     74 HO13        -0.7690    -0.7410    -2.7600 ho         1 GGV       0.438000
     75 H14          0.1060     1.5370    -0.0630 h1         1 GGV       0.093700
     76 H15          0.6980     2.0850    -2.9960 hc         1 GGV       0.059200
     77 H15A         0.1060     3.2130    -1.7930 hc         1 GGV       0.059200
     78 H17          3.0670     1.8070    -3.3360 ha         1 GGV       0.110500
     79 H18          5.4100     2.2890    -2.6690 ha         1 GGV       0.113500
     80 H19          5.8870     3.4280    -0.5050 ha         1 GGV       0.109000
     81 H20          4.0060     4.0990     0.9890 ha         1 GGV       0.113500
     82 H21          1.6580     3.6210     0.3300 ha         1 GGV       0.110500
     83 HN22         1.4340    -0.3490    -1.9750 hn         1 GGV       0.310500
     84 H25          3.2340    -1.1790    -1.4520 h1         1 GGV       0.082700
     85 H27          4.1340    -0.0530     2.1290 h4         1 GGV       0.246000
     86 H28          6.7980     0.9100     2.0250 h4         1 GGV       0.227000
     87 H30          7.9850     0.7470    -1.5830 h1         1 GGV       0.069700
     88 H30A         8.3880     1.4610    -0.0190 h1         1 GGV       0.069700
     89 H32          8.3490    -1.8420    -1.8710 ha         1 GGV       0.126000
     90 H33         10.0750    -3.6180    -1.4520 ha         1 GGV       0.120000
     91 H34         11.7390    -3.2520     0.3860 ha         1 GGV       0.134000
     92 H38         13.3430     0.0620     0.8250 hc         1 GGV       0.047700
     93 H38A        14.1110    -0.6590     2.2550 hc         1 GGV       0.047700
     94 H38B        13.6850    -1.6780     0.8670 hc         1 GGV       0.047700
     95 H39         10.5950    -0.0490     3.4720 hc         1 GGV       0.047700
     96 H39A        12.3120     0.2080     3.8370 hc         1 GGV       0.047700
     97 H39B        11.5660     1.0530     2.4720 hc         1 GGV       0.047700
     98 HO40        11.1940    -2.3830     3.3390 ho         1 GGV       0.443000
     99 H44          1.4490    -3.1730    -1.4880 hc         1 GGV       0.040589
    100 H44A         1.4620    -4.3350    -0.1470 hc         1 GGV       0.040589
    101 H44B         0.7250    -2.7410     0.0740 hc         1 GGV       0.040589
    102 H45          5.0540    -3.2900    -0.1920 hc         1 GGV       0.040589
    103 H45A         3.9110    -4.6360    -0.3010 hc         1 GGV       0.040589
    104 H45B         4.0560    -3.4900    -1.6460 hc         1 GGV       0.040589
    105 H46          2.2620    -2.2390     2.1230 hc         1 GGV       0.040589
    106 H46A         2.8330    -3.8990     1.9120 hc         1 GGV       0.040589
    107 H46B         4.0010    -2.5800     2.0140 hc         1 GGV       0.040589
    108 H47         -3.4100    -2.7340    -0.1220 hc         1 GGV       0.062700
    109 H47A        -3.5080    -1.5680     1.1770 hc         1 GGV       0.062700
    110 H49         -5.5150    -2.5770    -1.8950 ha         1 GGV       0.116500
    111 H50         -7.9710    -2.6580    -1.9340 ha         1 GGV       0.123000
    112 H52         -8.0580    -1.2590     2.1750 ha         1 GGV       0.123000
    113 H53         -5.6140    -1.2070     2.1990 ha         1 GGV       0.116500
    114 H55        -10.0660    -2.1190     2.2490 ha         1 GGV       0.124000
    115 H56        -12.5540    -2.1020     2.0880 ha         1 GGV       0.118000
    116 H57        -13.6020    -1.9890    -0.2010 ha         1 GGV       0.124000
    117 H58        -12.1160    -1.9050    -2.2130 h4         1 GGV       0.019100
    118 H61         -3.6580     3.8300     1.1130 hc         1 GGV       0.039367
    119 H61A        -4.3260     5.3970     0.6370 hc         1 GGV       0.039367
    120 H61B        -5.1910     4.3920     1.8100 hc         1 GGV       0.039367
    121 H62         -4.9640     3.1940    -2.3790 hc         1 GGV       0.039367
    122 H62A        -4.2560     4.7330    -1.8570 hc         1 GGV       0.039367
    123 H62B        -3.5090     3.2140    -1.3590 hc         1 GGV       0.039367
    124 H63         -7.2760     4.6260     0.3120 hc         1 GGV       0.039367
    125 H63A        -6.3710     5.5440    -0.8970 hc         1 GGV       0.039367
    126 H63B        -7.2330     4.0690    -1.3730 hc         1 GGV       0.039367
@<TRIPOS>BOND
     1     1     3 1   
     2     1    64 1   
     3     1    65 1   
     4     1    66 1   
     5     2     4 1   
     6     2     6 1   
     7     2    67 1   
     8     3     4 1   
     9     4     5 2   
    10     6     7 1   
    11     6    60 1   
    12     6    68 1   
    13     7     8 2   
    14     7     9 1   
    15     9    10 1   
    16     9    69 1   
    17    10    11 1   
    18    10    47 1   
    19    10    70 1   
    20    11    12 1   
    21    11    71 1   
    22    11    72 1   
    23    12    13 1   
    24    12    14 1   
    25    12    73 1   
    26    13    74 1   
    27    14    15 1   
    28    14    22 1   
    29    14    75 1   
    30    15    16 1   
    31    15    76 1   
    32    15    77 1   
    33    16    17 ar  
    34    16    21 ar  
    35    17    18 ar  
    36    17    78 1   
    37    18    19 ar  
    38    18    79 1   
    39    19    20 ar  
    40    19    80 1   
    41    20    21 ar  
    42    20    81 1   
    43    21    82 1   
    44    22    23 1   
    45    22    83 1   
    46    23    24 2   
    47    23    25 1   
    48    25    26 1   
    49    25    43 1   
    50    25    84 1   
    51    26    27 1   
    52    26    41 1   
    53    27    28 2   
    54    27    85 1   
    55    28    29 1   
    56    28    86 1   
    57    29    30 1   
    58    29    41 1   
    59    30    31 1   
    60    30    87 1   
    61    30    88 1   
    62    31    32 ar  
    63    31    36 ar  
    64    32    33 ar  
    65    32    89 1   
    66    33    34 ar  
    67    33    90 1   
    68    34    35 ar  
    69    34    91 1   
    70    35    36 ar  
    71    35    37 1   
    72    37    38 1   
    73    37    39 1   
    74    37    40 1   
    75    38    92 1   
    76    38    93 1   
    77    38    94 1   
    78    39    95 1   
    79    39    96 1   
    80    39    97 1   
    81    40    98 1   
    82    41    42 2   
    83    43    44 1   
    84    43    45 1   
    85    43    46 1   
    86    44    99 1   
    87    44   100 1   
    88    44   101 1   
    89    45   102 1   
    90    45   103 1   
    91    45   104 1   
    92    46   105 1   
    93    46   106 1   
    94    46   107 1   
    95    47    48 1   
    96    47   108 1   
    97    47   109 1   
    98    48    49 ar  
    99    48    53 ar  
   100    49    50 ar  
   101    49   110 1   
   102    50    51 ar  
   103    50   111 1   
   104    51    52 ar  
   105    51    54 1   
   106    52    53 ar  
   107    52   112 1   
   108    53   113 1   
   109    54    55 ar  
   110    54    59 ar  
   111    55    56 ar  
   112    55   114 1   
   113    56    57 ar  
   114    56   115 1   
   115    57    58 ar  
   116    57   116 1   
   117    58    59 ar  
   118    58   117 1   
   119    60    61 1   
   120    60    62 1   
   121    60    63 1   
   122    61   118 1   
   123    61   119 1   
   124    61   120 1   
   125    62   121 1   
   126    62   122 1   
   127    62   123 1   
   128    63   124 1   
   129    63   125 1   
   130    63   126 1   
@<TRIPOS>SUBSTRUCTURE
     1 GGV         1 TEMP              0 ****  ****    0 ROOT
