@<TRIPOS>MOLECULE
GGW
  104   106     1     0     0
SMALL
bcc


@<TRIPOS>ATOM
      1 C1          -2.3980     3.8330    -0.4380 c3         1 GGW       0.146700
      2 O2          -0.9850     3.8790    -0.2710 os         1 GGW      -0.427900
      3 C3          -0.2810     2.8460    -0.7270 c          1 GGW       0.769100
      4 O4          -0.7910     1.8500    -1.2180 o          1 GGW      -0.645000
      5 N5           1.0350     3.0480    -0.5930 ns         1 GGW      -0.543900
      6 C6           2.0050     2.0470    -0.9630 c3         1 GGW       0.054700
      7 C7           1.7440     0.7750    -0.1440 c          1 GGW       0.657100
      8 O8           1.4130     0.8350     1.0300 o          1 GGW      -0.606100
      9 N9           1.8900    -0.3650    -0.8310 ns         1 GGW      -0.554900
     10 C10          1.5210    -1.6890    -0.3560 c3         1 GGW       0.133700
     11 C11          0.0090    -1.8310    -0.1720 c3         1 GGW      -0.140400
     12 C12         -0.7960    -1.8480    -1.4700 c3         1 GGW       0.149100
     13 O13         -0.5100    -0.7800    -2.3430 oh         1 GGW      -0.621800
     14 C14         -2.3010    -1.9700    -1.1790 c3         1 GGW       0.083700
     15 C15         -3.1230    -2.0810    -2.4720 c3         1 GGW      -0.044100
     16 C16         -4.5950    -2.1960    -2.2000 ca         1 GGW      -0.079300
     17 C17         -5.4090    -1.0670    -2.1980 ca         1 GGW      -0.118000
     18 C18         -6.7610    -1.1640    -1.8960 ca         1 GGW      -0.128000
     19 C19         -7.3200    -2.3960    -1.5900 ca         1 GGW      -0.128000
     20 C20         -6.5180    -3.5310    -1.5910 ca         1 GGW      -0.128000
     21 C21         -5.1680    -3.4280    -1.8930 ca         1 GGW      -0.118000
     22 N22         -2.7770    -0.8700    -0.3670 ns         1 GGW      -0.564900
     23 C23         -3.5840    -1.0180     0.6980 c          1 GGW       0.657100
     24 O24         -3.9280    -2.1000     1.1460 o          1 GGW      -0.608100
     25 C25         -4.0730     0.2880     1.3230 c3         1 GGW       0.050700
     26 N26         -5.5040     0.2040     1.4680 ns         1 GGW      -0.551900
     27 C27         -6.3540     1.0110     0.8020 c          1 GGW       0.757100
     28 O28         -6.0360     1.9470     0.1000 o          1 GGW      -0.607000
     29 O29         -7.6200     0.6540     1.0410 os         1 GGW      -0.428900
     30 C30         -8.6360     1.4310     0.4220 c3         1 GGW       0.147700
     31 C31         -3.3600     0.6420     2.6550 c3         1 GGW      -0.045000
     32 C32         -1.8480     0.6070     2.4410 c3         1 GGW      -0.086767
     33 C33         -3.7880     2.0540     3.0590 c3         1 GGW      -0.086767
     34 C34         -3.7310    -0.3230     3.7830 c3         1 GGW      -0.086767
     35 C35          2.2650    -2.0900     0.9270 c3         1 GGW      -0.043100
     36 C36          3.7350    -1.7880     0.8720 ca         1 GGW      -0.057300
     37 C37          4.3190    -0.8890     1.7580 ca         1 GGW      -0.134500
     38 C38          5.6710    -0.5910     1.6910 ca         1 GGW      -0.102500
     39 C39          6.4880    -1.1860     0.7310 cp         1 GGW      -0.154500
     40 C40          5.9020    -2.0870    -0.1600 ca         1 GGW      -0.102500
     41 C41          4.5520    -2.3840    -0.0860 ca         1 GGW      -0.134500
     42 C42          7.9280    -0.8540     0.6670 cp         1 GGW       0.476800
     43 C43          8.8490    -1.6830     0.0240 ca         1 GGW      -0.238300
     44 C44         10.1840    -1.3170    -0.0050 ca         1 GGW      -0.090000
     45 C45         10.5730    -0.1390     0.6140 ca         1 GGW      -0.250300
     46 C46          9.5920     0.6140     1.2410 ca         1 GGW       0.409200
     47 N47          8.3120     0.2730     1.2680 nb         1 GGW      -0.678000
     48 C48          3.4490     2.5920    -0.8140 c3         1 GGW      -0.046000
     49 C49          3.7920     2.9630     0.6300 c3         1 GGW      -0.091100
     50 C50          4.4310     1.5220    -1.2970 c3         1 GGW      -0.091100
     51 C51          3.6020     3.8250    -1.7100 c3         1 GGW      -0.091100
     52 H1          -2.6790     3.7700    -1.4880 h1         1 GGW       0.052700
     53 H1A         -2.8410     2.9970     0.1020 h1         1 GGW       0.052700
     54 H1B         -2.7770     4.7610    -0.0200 h1         1 GGW       0.052700
     55 HN5          1.3380     3.8760    -0.1040 hn         1 GGW       0.340500
     56 H6           1.8760     1.8160    -2.0280 h1         1 GGW       0.066700
     57 HN9          2.0800    -0.2900    -1.8160 hn         1 GGW       0.320500
     58 H10          1.8430    -2.3680    -1.1490 h1         1 GGW       0.049700
     59 H11         -0.1920    -2.7760     0.3430 hc         1 GGW       0.068200
     60 H11A        -0.3420    -1.0420     0.4970 hc         1 GGW       0.068200
     61 H12         -0.5220    -2.7560    -2.0200 h1         1 GGW       0.062700
     62 HO13        -0.5070     0.0630    -1.8660 ho         1 GGW       0.440000
     63 H14         -2.4450    -2.8810    -0.5960 h1         1 GGW       0.080700
     64 H15         -2.9290    -1.2070    -3.0980 hc         1 GGW       0.058700
     65 H15A        -2.7680    -2.9540    -3.0270 hc         1 GGW       0.058700
     66 H17         -4.9860    -0.0990    -2.4410 ha         1 GGW       0.129000
     67 H18         -7.3810    -0.2770    -1.9130 ha         1 GGW       0.127500
     68 H19         -8.3750    -2.4740    -1.3590 ha         1 GGW       0.127000
     69 H20         -6.9460    -4.4980    -1.3580 ha         1 GGW       0.127500
     70 H21         -4.5480    -4.3180    -1.8900 ha         1 GGW       0.129000
     71 HN22        -2.5670     0.0670    -0.6770 hn         1 GGW       0.329500
     72 H25         -3.8820     1.1050     0.6240 h1         1 GGW       0.080700
     73 HN26        -5.8800    -0.6100     1.9290 hn         1 GGW       0.343500
     74 H30         -8.5870     2.4780     0.7220 h1         1 GGW       0.046367
     75 H30A        -8.5860     1.3720    -0.6660 h1         1 GGW       0.046367
     76 H30B        -9.5800     1.0080     0.7550 h1         1 GGW       0.046367
     77 H32         -1.5250     1.2070     1.5870 hc         1 GGW       0.039700
     78 H32A        -1.3310     0.9900     3.3220 hc         1 GGW       0.039700
     79 H32B        -1.4880    -0.4100     2.2770 hc         1 GGW       0.039700
     80 H33         -4.8590     2.1120     3.2530 hc         1 GGW       0.039700
     81 H33A        -3.2710     2.3560     3.9710 hc         1 GGW       0.039700
     82 H33B        -3.5490     2.7900     2.2880 hc         1 GGW       0.039700
     83 H34         -3.4090    -1.3440     3.5780 hc         1 GGW       0.039700
     84 H34A        -3.2490    -0.0040     4.7090 hc         1 GGW       0.039700
     85 H34B        -4.8060    -0.3360     3.9690 hc         1 GGW       0.039700
     86 H35          1.8160    -1.5940     1.7860 hc         1 GGW       0.064200
     87 H35A         2.1090    -3.1630     1.0650 hc         1 GGW       0.064200
     88 H37          3.7040    -0.4050     2.5070 ha         1 GGW       0.135500
     89 H38          6.1000     0.1150     2.3890 ha         1 GGW       0.140000
     90 H40          6.4920    -2.5560    -0.9370 ha         1 GGW       0.140000
     91 H41          4.1280    -3.0860    -0.7950 ha         1 GGW       0.135500
     92 H43          8.5380    -2.6110    -0.4350 ha         1 GGW       0.142000
     93 H44         10.9100    -1.9490    -0.4990 ha         1 GGW       0.137000
     94 H45         11.6040     0.1870     0.6180 ha         1 GGW       0.142000
     95 H46          9.8540     1.5390     1.7440 h4         1 GGW       0.018100
     96 H49          3.7350     2.1030     1.2960 hc         1 GGW       0.042256
     97 H49A         4.8130     3.3450     0.6690 hc         1 GGW       0.042256
     98 H49B         3.1470     3.7460     1.0350 hc         1 GGW       0.042256
     99 H50          4.1830     1.1730    -2.3020 hc         1 GGW       0.042256
    100 H50A         5.4390     1.9380    -1.3340 hc         1 GGW       0.042256
    101 H50B         4.4660     0.6580    -0.6350 hc         1 GGW       0.042256
    102 H51          2.9910     4.6690    -1.3850 hc         1 GGW       0.042256
    103 H51A         4.6390     4.1630    -1.6970 hc         1 GGW       0.042256
    104 H51B         3.3370     3.6010    -2.7460 hc         1 GGW       0.042256
@<TRIPOS>BOND
     1     1     2 1   
     2     1    52 1   
     3     1    53 1   
     4     1    54 1   
     5     2     3 1   
     6     3     4 2   
     7     3     5 1   
     8     5     6 1   
     9     5    55 1   
    10     6     7 1   
    11     6    48 1   
    12     6    56 1   
    13     7     8 2   
    14     7     9 1   
    15     9    10 1   
    16     9    57 1   
    17    10    11 1   
    18    10    35 1   
    19    10    58 1   
    20    11    12 1   
    21    11    59 1   
    22    11    60 1   
    23    12    13 1   
    24    12    14 1   
    25    12    61 1   
    26    13    62 1   
    27    14    15 1   
    28    14    22 1   
    29    14    63 1   
    30    15    16 1   
    31    15    64 1   
    32    15    65 1   
    33    16    17 ar  
    34    16    21 ar  
    35    17    18 ar  
    36    17    66 1   
    37    18    19 ar  
    38    18    67 1   
    39    19    20 ar  
    40    19    68 1   
    41    20    21 ar  
    42    20    69 1   
    43    21    70 1   
    44    22    23 1   
    45    22    71 1   
    46    23    24 2   
    47    23    25 1   
    48    25    26 1   
    49    25    31 1   
    50    25    72 1   
    51    26    27 1   
    52    26    73 1   
    53    27    28 2   
    54    27    29 1   
    55    29    30 1   
    56    30    74 1   
    57    30    75 1   
    58    30    76 1   
    59    31    32 1   
    60    31    33 1   
    61    31    34 1   
    62    32    77 1   
    63    32    78 1   
    64    32    79 1   
    65    33    80 1   
    66    33    81 1   
    67    33    82 1   
    68    34    83 1   
    69    34    84 1   
    70    34    85 1   
    71    35    36 1   
    72    35    86 1   
    73    35    87 1   
    74    36    37 ar  
    75    36    41 ar  
    76    37    38 ar  
    77    37    88 1   
    78    38    39 ar  
    79    38    89 1   
    80    39    40 ar  
    81    39    42 1   
    82    40    41 ar  
    83    40    90 1   
    84    41    91 1   
    85    42    43 ar  
    86    42    47 ar  
    87    43    44 ar  
    88    43    92 1   
    89    44    45 ar  
    90    44    93 1   
    91    45    46 ar  
    92    45    94 1   
    93    46    47 ar  
    94    46    95 1   
    95    48    49 1   
    96    48    50 1   
    97    48    51 1   
    98    49    96 1   
    99    49    97 1   
   100    49    98 1   
   101    50    99 1   
   102    50   100 1   
   103    50   101 1   
   104    51   102 1   
   105    51   103 1   
   106    51   104 1   
@<TRIPOS>SUBSTRUCTURE
     1 GGW         1 TEMP              0 ****  ****    0 ROOT
