@<TRIPOS>MOLECULE
GGW
  104   106     1     0     0
SMALL
No Charge or Current Charge


@<TRIPOS>ATOM
      1 C1          -2.6150     3.6750    -0.6640 c3         1 GGW       0.169900
      2 O2          -1.1850     3.7110    -0.5180 os         1 GGW      -0.451100
      3 C3          -0.4920     2.5680    -0.7700 c          1 GGW       0.653100
      4 O4          -0.9750     1.4920    -1.0970 o          1 GGW      -0.596000
      5 N5           0.8430     2.8330    -0.6490 ns         1 GGW      -0.476900
      6 C6           1.9260     1.8780    -0.9740 c3         1 GGW       0.054700
      7 C7           1.7860     0.6000    -0.0920 c          1 GGW       0.590100
      8 O8           1.4250     0.6290     1.0790 o          1 GGW      -0.606100
      9 N9           2.0400    -0.5770    -0.7700 ns         1 GGW      -0.487900
     10 C10          1.6740    -1.9230    -0.3220 c3         1 GGW       0.133700
     11 C11          0.1320    -2.0670    -0.1870 c3         1 GGW      -0.140400
     12 C12         -0.6990    -1.9960    -1.5050 c3         1 GGW       0.172300
     13 O13         -0.3520    -0.8410    -2.2860 oh         1 GGW      -0.684000
     14 C14         -2.2390    -2.0190    -1.2430 c3         1 GGW       0.083700
     15 C15         -3.0850    -2.0300    -2.5490 c3         1 GGW      -0.044100
     16 C16         -4.5890    -1.9710    -2.2960 ca         1 GGW      -0.079300
     17 C17         -5.2680    -0.7350    -2.3370 ca         1 GGW      -0.100000
     18 C18         -6.6460    -0.6730    -2.0700 ca         1 GGW      -0.110000
     19 C19         -7.3560    -1.8450    -1.7620 ca         1 GGW      -0.110000
     20 C20         -6.6870    -3.0800    -1.7250 ca         1 GGW      -0.110000
     21 C21         -5.3070    -3.1430    -1.9900 ca         1 GGW      -0.100000
     22 N22         -2.6760    -0.9270    -0.3510 ns         1 GGW      -0.497900
     23 C23         -3.6030    -1.0750     0.6640 c          1 GGW       0.590100
     24 O24         -4.0190    -2.1750     1.0080 o          1 GGW      -0.608100
     25 C25         -4.1190     0.2540     1.2900 c3         1 GGW       0.050700
     26 N26         -5.5870     0.1520     1.4440 ns         1 GGW      -0.484900
     27 C27         -6.4880     1.0880     1.0290 c          1 GGW       0.641100
     28 O28         -6.2060     2.1490     0.4960 o          1 GGW      -0.558000
     29 O29         -7.7450     0.6290     1.2790 os         1 GGW      -0.452100
     30 C30         -8.8500     1.4570     0.8790 c3         1 GGW       0.170900
     31 C31         -3.4100     0.6590     2.6350 c3         1 GGW      -0.045000
     32 C32         -1.8740     0.7480     2.4300 c3         1 GGW      -0.086767
     33 C33         -3.9130     2.0550     3.1010 c3         1 GGW      -0.086767
     34 C34         -3.6980    -0.3700     3.7650 c3         1 GGW      -0.086767
     35 C35          2.4320    -2.3300     0.9700 c3         1 GGW      -0.043100
     36 C36          3.9140    -1.9580     0.9360 ca         1 GGW      -0.057300
     37 C37          4.4210    -0.9730     1.8010 ca         1 GGW      -0.116500
     38 C38          5.7730    -0.5990     1.7410 ca         1 GGW      -0.084500
     39 C39          6.6690    -1.2020     0.8150 cp         1 GGW      -0.154500
     40 C40          6.1350    -2.1980    -0.0470 ca         1 GGW      -0.084500
     41 C41          4.7810    -2.5700     0.0140 ca         1 GGW      -0.116500
     42 C42          8.1180    -0.7940     0.7450 cp         1 GGW       0.411500
     43 C43          9.1250    -1.6460     0.2200 ca         1 GGW      -0.155000
     44 C44         10.4600    -1.2150     0.1740 ca         1 GGW      -0.072000
     45 C45         10.7540     0.0670     0.6610 ca         1 GGW      -0.167000
     46 C46          9.7130     0.8560     1.1750 ca         1 GGW       0.343900
     47 N47          8.4290     0.4370     1.2200 nb         1 GGW      -0.678000
     48 C48          3.3490     2.5430    -0.9000 c3         1 GGW      -0.046000
     49 C49          3.6820     3.0120     0.5440 c3         1 GGW      -0.091100
     50 C50          4.4400     1.5350    -1.3570 c3         1 GGW      -0.091100
     51 C51          3.4050     3.7710    -1.8530 c3         1 GGW      -0.091100
     52 H1          -2.8980     3.3820    -1.6840 h1         1 GGW       0.052700
     53 H1A         -3.0610     2.9630     0.0390 h1         1 GGW       0.052700
     54 H1B         -3.0450     4.6640    -0.4620 h1         1 GGW       0.052700
     55 HN5          1.0800     3.7730    -0.3640 hn         1 GGW       0.340500
     56 H6           1.7600     1.5600    -2.0120 h1         1 GGW       0.066700
     57 HN9          2.3140    -0.4790    -1.7390 hn         1 GGW       0.320500
     58 H10          2.0000    -2.6130    -1.1110 h1         1 GGW       0.049700
     59 H11         -0.0830    -3.0350     0.2820 hc         1 GGW       0.068200
     60 H11A        -0.2290    -1.3130     0.5190 hc         1 GGW       0.068200
     61 H12         -0.4550    -2.8970    -2.0860 h1         1 GGW       0.062700
     62 HO13        -0.6110    -0.0350    -1.7670 ho         1 GGW       0.479000
     63 H14         -2.4450    -2.9680    -0.7310 h1         1 GGW       0.080700
     64 H15         -2.7930    -1.1830    -3.1810 hc         1 GGW       0.058700
     65 H15A        -2.8360    -2.9310    -3.1240 hc         1 GGW       0.058700
     66 H17         -4.7250     0.1790    -2.5650 ha         1 GGW       0.111000
     67 H18         -7.1620     0.2840    -2.0960 ha         1 GGW       0.109500
     68 H19         -8.4220    -1.7970    -1.5520 ha         1 GGW       0.109000
     69 H20         -7.2350    -3.9890    -1.4850 ha         1 GGW       0.109500
     70 H21         -4.7950    -4.1010    -1.9480 ha         1 GGW       0.111000
     71 HN22        -2.3680     0.0170    -0.5600 hn         1 GGW       0.329500
     72 H25         -3.9150     1.0340     0.5470 h1         1 GGW       0.080700
     73 HN26        -5.9790    -0.7000     1.8250 hn         1 GGW       0.343500
     74 H30         -8.8140     2.4300     1.3860 h1         1 GGW       0.046367
     75 H30A        -8.8380     1.6290    -0.2050 h1         1 GGW       0.046367
     76 H30B        -9.8020     0.9750     1.1370 h1         1 GGW       0.046367
     77 H32         -1.6250     1.4430     1.6220 hc         1 GGW       0.039700
     78 H32A        -1.3760     1.1040     3.3410 hc         1 GGW       0.039700
     79 H32B        -1.4470    -0.2310     2.1880 hc         1 GGW       0.039700
     80 H33         -4.9830     2.0360     3.3400 hc         1 GGW       0.039700
     81 H33A        -3.3810     2.3840     4.0020 hc         1 GGW       0.039700
     82 H33B        -3.7530     2.8110     2.3230 hc         1 GGW       0.039700
     83 H34         -3.3180    -1.3660     3.5050 hc         1 GGW       0.039700
     84 H34A        -3.2120    -0.0670     4.7000 hc         1 GGW       0.039700
     85 H34B        -4.7730    -0.4570     3.9640 hc         1 GGW       0.039700
     86 H35          1.9470    -1.8640     1.8360 hc         1 GGW       0.064200
     87 H35A         2.3250    -3.4110     1.1170 hc         1 GGW       0.064200
     88 H37          3.7630    -0.4820     2.5150 ha         1 GGW       0.117500
     89 H38          6.1290     0.1690     2.4240 ha         1 GGW       0.122000
     90 H40          6.7650    -2.6790    -0.7900 ha         1 GGW       0.122000
     91 H41          4.4030    -3.3280    -0.6680 ha         1 GGW       0.117500
     92 H43          8.8760    -2.6410    -0.1350 ha         1 GGW       0.124000
     93 H44         11.2430    -1.8570    -0.2240 ha         1 GGW       0.119000
     94 H45         11.7710     0.4480     0.6480 ha         1 GGW       0.124000
     95 H46          9.9130     1.8540     1.5640 h4         1 GGW       0.018100
     96 H49          3.7170     2.1660     1.2400 hc         1 GGW       0.042256
     97 H49A         4.6620     3.5040     0.5770 hc         1 GGW       0.042256
     98 H49B         2.9380     3.7270     0.9160 hc         1 GGW       0.042256
     99 H50          4.2270     1.1530    -2.3630 hc         1 GGW       0.042256
    100 H50A         5.4280     2.0110    -1.3820 hc         1 GGW       0.042256
    101 H50B         4.5100     0.6800    -0.6750 hc         1 GGW       0.042256
    102 H51          2.7120     4.5610    -1.5380 hc         1 GGW       0.042256
    103 H51A         4.4110     4.2080    -1.8720 hc         1 GGW       0.042256
    104 H51B         3.1450     3.4830    -2.8790 hc         1 GGW       0.042256
@<TRIPOS>BOND
     1     1     2 1   
     2     1    52 1   
     3     1    53 1   
     4     1    54 1   
     5     2     3 1   
     6     3     4 2   
     7     3     5 1   
     8     5     6 1   
     9     5    55 1   
    10     6     7 1   
    11     6    48 1   
    12     6    56 1   
    13     7     8 2   
    14     7     9 1   
    15     9    10 1   
    16     9    57 1   
    17    10    11 1   
    18    10    35 1   
    19    10    58 1   
    20    11    12 1   
    21    11    59 1   
    22    11    60 1   
    23    12    13 1   
    24    12    14 1   
    25    12    61 1   
    26    13    62 1   
    27    14    15 1   
    28    14    22 1   
    29    14    63 1   
    30    15    16 1   
    31    15    64 1   
    32    15    65 1   
    33    16    17 ar  
    34    16    21 ar  
    35    17    18 ar  
    36    17    66 1   
    37    18    19 ar  
    38    18    67 1   
    39    19    20 ar  
    40    19    68 1   
    41    20    21 ar  
    42    20    69 1   
    43    21    70 1   
    44    22    23 1   
    45    22    71 1   
    46    23    24 2   
    47    23    25 1   
    48    25    26 1   
    49    25    31 1   
    50    25    72 1   
    51    26    27 1   
    52    26    73 1   
    53    27    28 2   
    54    27    29 1   
    55    29    30 1   
    56    30    74 1   
    57    30    75 1   
    58    30    76 1   
    59    31    32 1   
    60    31    33 1   
    61    31    34 1   
    62    32    77 1   
    63    32    78 1   
    64    32    79 1   
    65    33    80 1   
    66    33    81 1   
    67    33    82 1   
    68    34    83 1   
    69    34    84 1   
    70    34    85 1   
    71    35    36 1   
    72    35    86 1   
    73    35    87 1   
    74    36    37 ar  
    75    36    41 ar  
    76    37    38 ar  
    77    37    88 1   
    78    38    39 ar  
    79    38    89 1   
    80    39    40 ar  
    81    39    42 1   
    82    40    41 ar  
    83    40    90 1   
    84    41    91 1   
    85    42    43 ar  
    86    42    47 ar  
    87    43    44 ar  
    88    43    92 1   
    89    44    45 ar  
    90    44    93 1   
    91    45    46 ar  
    92    45    94 1   
    93    46    47 ar  
    94    46    95 1   
    95    48    49 1   
    96    48    50 1   
    97    48    51 1   
    98    49    96 1   
    99    49    97 1   
   100    49    98 1   
   101    50    99 1   
   102    50   100 1   
   103    50   101 1   
   104    51   102 1   
   105    51   103 1   
   106    51   104 1   
@<TRIPOS>SUBSTRUCTURE
     1 GGW         1 TEMP              0 ****  ****    0 ROOT
