@<TRIPOS>MOLECULE
GGX
  119   123     1     0     0
SMALL
No Charge or Current Charge


@<TRIPOS>ATOM
      1 N1           5.1340     1.8930    -1.3450 n          1 GGX      -0.287000
      2 C2           3.7590     2.3270    -0.8030 c3         1 GGX       0.055700
      3 C3           2.7670     1.1420    -0.7530 c          1 GGX       0.598100
      4 N4           2.0710     1.0170     0.4350 ns         1 GGX      -0.499900
      5 C5           1.2750    -0.1640     0.7990 c3         1 GGX       0.073700
      6 C6          -0.1970     0.1810     1.1780 c3         1 GGX       0.163300
      7 C7          -0.9990     0.7650    -0.0120 c3         1 GGX      -0.122400
      8 C8          -2.5110     0.9710     0.2630 c3         1 GGX       0.128700
      9 C9           3.1870     3.6380    -1.4640 c3         1 GGX      -0.047000
     10 O10          2.6170     0.3510    -1.6770 o          1 GGX      -0.591100
     11 C11          2.0130    -0.9860     1.8850 c3         1 GGX      -0.044100
     12 C12          2.8330     3.4410    -2.9640 c3         1 GGX      -0.089433
     13 C13          1.9030     4.0920    -0.7160 c3         1 GGX      -0.089433
     14 C14          4.5360    -0.6140     1.9090 ca         1 GGX      -0.106500
     15 C15          5.8330    -0.9370     1.4770 ca         1 GGX      -0.106000
     16 C16          6.0330    -2.0080     0.5920 ca         1 GGX      -0.111000
     17 C17          4.9360    -2.7580     0.1390 ca         1 GGX      -0.106000
     18 C18          3.6370    -2.4350     0.5700 ca         1 GGX      -0.106500
     19 C19          3.4290    -1.3610     1.4570 ca         1 GGX      -0.091300
     20 C20          6.3320     1.9800    -0.5960 c          1 GGX       0.568000
     21 N21          7.3330     1.4910    -1.4380 n          1 GGX      -0.290000
     22 C22          6.7900     1.0880    -2.6510 cc         1 GGX      -0.189400
     23 C23          5.4340     1.3200    -2.5970 cd         1 GGX      -0.132400
     24 C24          8.7570     1.4160    -1.0500 c3         1 GGX       0.070700
     25 C25          9.1830     0.0740    -0.4610 ca         1 GGX       0.327300
     26 C26         -3.2570     1.5860    -0.9520 c3         1 GGX      -0.053100
     27 O27          6.4400     2.3950     0.5480 o          1 GGX      -0.593000
     28 N28         -3.1820    -0.2450     0.7460 ns         1 GGX      -0.488900
     29 C29         -4.7760     1.5630    -0.7860 ca         1 GGX      -0.075300
     30 C30         -3.4070    -1.3940     0.0120 c          1 GGX       0.584100
     31 O31         -2.8790    -1.5910    -1.0770 o          1 GGX      -0.611100
     32 C32         -4.4370    -2.3820     0.6400 c3         1 GGX       0.054700
     33 N33         -5.1840    -3.0350    -0.4600 ns         1 GGX      -0.490900
     34 C34         -6.5420    -3.1450    -0.5330 c          1 GGX       0.639100
     35 O35         -6.8680    -3.7580    -1.7040 os         1 GGX      -0.457100
     36 C36         -8.2640    -3.9660    -1.9830 c3         1 GGX       0.170900
     37 C37         -3.8040    -3.4310     1.6300 c3         1 GGX      -0.048000
     38 C38         -3.1200    -2.7100     2.8240 c3         1 GGX      -0.087767
     39 C39         -4.9140    -4.3540     2.2100 c3         1 GGX      -0.087767
     40 C40         -2.7470    -4.3160     0.9110 c3         1 GGX      -0.087767
     41 O41         -7.3290    -2.7510     0.3110 o          1 GGX      -0.549000
     42 C42         -5.4060     2.4220     0.1300 ca         1 GGX      -0.118500
     43 C43         -6.7960     2.3550     0.3280 ca         1 GGX      -0.080000
     44 C44         -7.5990     1.4180    -0.3780 cp         1 GGX      -0.142500
     45 C45         -6.9440     0.5710    -1.3100 ca         1 GGX      -0.080000
     46 C46         -5.5560     0.6450    -1.5120 ca         1 GGX      -0.118500
     47 N47          9.4070     0.0300     0.8750 nb         1 GGX      -0.664000
     48 C48          9.7860    -1.1460     1.4230 ca         1 GGX       0.359300
     49 C49          9.9650    -2.3170     0.6630 ca         1 GGX      -0.160000
     50 C50          9.7440    -2.2740    -0.7230 ca         1 GGX      -0.072000
     51 C51          9.3440    -1.0540    -1.2900 ca         1 GGX      -0.157000
     52 C52          9.9990    -1.1460     2.9240 c3         1 GGX      -0.148400
     53 C53          4.2370     4.7780    -1.3470 c3         1 GGX      -0.089433
     54 O54         -0.2290     1.1110     2.2730 oh         1 GGX      -0.660000
     55 C55         -9.0840     1.3240    -0.1470 cp         1 GGX       0.402500
     56 N56         -9.7060     2.4410     0.3030 nb         1 GGX      -0.671000
     57 C57        -11.0390     2.4080     0.5250 ca         1 GGX       0.338900
     58 C58        -11.8170     1.2570     0.3170 ca         1 GGX      -0.166000
     59 C59        -11.1930     0.0850    -0.1360 ca         1 GGX      -0.075000
     60 C60         -9.8090     0.1240    -0.3670 ca         1 GGX      -0.151000
     61 H2           3.9310     2.5820     0.2500 h1         1 GGX       0.085700
     62 HN4          2.2800     1.6920     1.1600 hn         1 GGX       0.309500
     63 H5           1.2240    -0.8060    -0.0890 h1         1 GGX       0.094700
     64 H6          -0.6770    -0.7610     1.4770 h1         1 GGX       0.081700
     65 H7          -0.5620     1.7240    -0.3110 hc         1 GGX       0.070200
     66 H7A         -0.8780     0.0980    -0.8740 hc         1 GGX       0.070200
     67 H8          -2.5950     1.7010     1.0790 h1         1 GGX       0.054700
     68 H11          2.0400    -0.4140     2.8210 hc         1 GGX       0.058200
     69 H11A         1.4370    -1.8940     2.1010 hc         1 GGX       0.058200
     70 H12          2.1210     2.6190    -3.1060 hc         1 GGX       0.040256
     71 H12A         2.3730     4.3490    -3.3750 hc         1 GGX       0.040256
     72 H12B         3.7250     3.2340    -3.5640 hc         1 GGX       0.040256
     73 H13          2.0920     4.2090     0.3590 hc         1 GGX       0.040256
     74 H13A         1.5460     5.0560    -1.0990 hc         1 GGX       0.040256
     75 H13B         1.0890     3.3700    -0.8450 hc         1 GGX       0.040256
     76 H15          6.6820    -0.3510     1.8240 ha         1 GGX       0.123500
     77 H16          7.0360    -2.2560     0.2550 ha         1 GGX       0.110000
     78 H17          5.0900    -3.5870    -0.5490 ha         1 GGX       0.123500
     79 H18          2.7910    -3.0140     0.2060 ha         1 GGX       0.108000
     80 H22          7.4370     0.6670    -3.4160 h4         1 GGX       0.223000
     81 H23          4.6430     1.1260    -3.3180 h4         1 GGX       0.246000
     82 H24          9.3710     1.6180    -1.9370 h1         1 GGX       0.076700
     83 H24A         8.9700     2.2130    -0.3270 h1         1 GGX       0.076700
     84 H26         -2.9110     2.6160    -1.1000 hc         1 GGX       0.064200
     85 H26A        -2.9740     1.0430    -1.8620 hc         1 GGX       0.064200
     86 HN28        -3.6680    -0.1810     1.6320 hn         1 GGX       0.320500
     87 H32         -5.1460    -1.7640     1.2070 h1         1 GGX       0.083700
     88 HN33        -4.6690    -3.3760    -1.2620 hn         1 GGX       0.344500
     89 H36         -8.8020    -3.0090    -2.0250 h1         1 GGX       0.047367
     90 H36A        -8.3890    -4.4690    -2.9500 h1         1 GGX       0.047367
     91 H36B        -8.7280    -4.5930    -1.2110 h1         1 GGX       0.047367
     92 H38         -3.8200    -2.0320     3.3280 hc         1 GGX       0.039811
     93 H38A        -2.7620    -3.4340     3.5660 hc         1 GGX       0.039811
     94 H38B        -2.2510    -2.1270     2.4980 hc         1 GGX       0.039811
     95 H39         -5.3790    -4.9650     1.4270 hc         1 GGX       0.039811
     96 H39A        -4.5030    -5.0410     2.9590 hc         1 GGX       0.039811
     97 H39B        -5.7020    -3.7630     2.6930 hc         1 GGX       0.039811
     98 H40         -1.9160    -3.7130     0.5270 hc         1 GGX       0.039811
     99 H40A        -2.3260    -5.0570     1.6020 hc         1 GGX       0.039811
    100 H40B        -3.1900    -4.8610     0.0690 hc         1 GGX       0.039811
    101 H42         -4.8170     3.1360     0.7010 ha         1 GGX       0.116000
    102 H43         -7.2510     3.0250     1.0530 ha         1 GGX       0.121000
    103 H45         -7.5120    -0.1500    -1.8930 ha         1 GGX       0.121000
    104 H46         -5.0850    -0.0280    -2.2250 ha         1 GGX       0.116000
    105 H49         10.2680    -3.2430     1.1430 ha         1 GGX       0.124000
    106 H50          9.8740    -3.1620    -1.3390 ha         1 GGX       0.120000
    107 H51          9.1600    -0.9790    -2.3580 ha         1 GGX       0.121000
    108 H52          9.0440    -1.2610     3.4500 hc         1 GGX       0.054367
    109 H52A        10.6540    -1.9680     3.2330 hc         1 GGX       0.054367
    110 H52B        10.4610    -0.2110     3.2620 hc         1 GGX       0.054367
    111 H53          5.1480     4.5420    -1.9110 hc         1 GGX       0.040256
    112 H53A         3.8400     5.7210    -1.7420 hc         1 GGX       0.040256
    113 H53B         4.5210     4.9430    -0.3000 hc         1 GGX       0.040256
    114 HO54         0.0530     1.9810     1.9200 ho         1 GGX       0.438000
    115 H57        -11.4960     3.3300     0.8810 h4         1 GGX       0.017100
    116 H58        -12.8860     1.2800     0.5110 ha         1 GGX       0.122000
    117 H59        -11.7640    -0.8270    -0.2980 ha         1 GGX       0.119000
    118 H60         -9.2970    -0.7740    -0.6970 ha         1 GGX       0.139000
    119 H14          4.3900     0.2240     2.5860 ha         1 GGX       0.108000
@<TRIPOS>BOND
     1     1     2 1   
     2     1    20 1   
     3     1    23 1   
     4     2     3 1   
     5     2     9 1   
     6     2    61 1   
     7     3     4 1   
     8     3    10 2   
     9     4     5 1   
    10     4    62 1   
    11     5     6 1   
    12     5    11 1   
    13     5    63 1   
    14     6     7 1   
    15     6    54 1   
    16     6    64 1   
    17     7     8 1   
    18     7    65 1   
    19     7    66 1   
    20     8    26 1   
    21     8    28 1   
    22     8    67 1   
    23     9    12 1   
    24     9    13 1   
    25     9    53 1   
    26    11    19 1   
    27    11    68 1   
    28    11    69 1   
    29    12    70 1   
    30    12    71 1   
    31    12    72 1   
    32    13    73 1   
    33    13    74 1   
    34    13    75 1   
    35    14    15 ar  
    36    14    19 ar  
    37    14   119 1   
    38    15    16 ar  
    39    15    76 1   
    40    16    17 ar  
    41    16    77 1   
    42    17    18 ar  
    43    17    78 1   
    44    18    19 ar  
    45    18    79 1   
    46    20    21 1   
    47    20    27 2   
    48    21    22 1   
    49    21    24 1   
    50    22    23 2   
    51    22    80 1   
    52    23    81 1   
    53    24    25 1   
    54    24    82 1   
    55    24    83 1   
    56    25    47 ar  
    57    25    51 ar  
    58    26    29 1   
    59    26    84 1   
    60    26    85 1   
    61    28    30 1   
    62    28    86 1   
    63    29    42 ar  
    64    29    46 ar  
    65    30    31 2   
    66    30    32 1   
    67    32    33 1   
    68    32    37 1   
    69    32    87 1   
    70    33    34 1   
    71    33    88 1   
    72    34    35 1   
    73    34    41 2   
    74    35    36 1   
    75    36    89 1   
    76    36    90 1   
    77    36    91 1   
    78    37    38 1   
    79    37    39 1   
    80    37    40 1   
    81    38    92 1   
    82    38    93 1   
    83    38    94 1   
    84    39    95 1   
    85    39    96 1   
    86    39    97 1   
    87    40    98 1   
    88    40    99 1   
    89    40   100 1   
    90    42    43 ar  
    91    42   101 1   
    92    43    44 ar  
    93    43   102 1   
    94    44    45 ar  
    95    44    55 1   
    96    45    46 ar  
    97    45   103 1   
    98    46   104 1   
    99    47    48 ar  
   100    48    49 ar  
   101    48    52 1   
   102    49    50 ar  
   103    49   105 1   
   104    50    51 ar  
   105    50   106 1   
   106    51   107 1   
   107    52   108 1   
   108    52   109 1   
   109    52   110 1   
   110    53   111 1   
   111    53   112 1   
   112    53   113 1   
   113    54   114 1   
   114    55    56 ar  
   115    55    60 ar  
   116    56    57 ar  
   117    57    58 ar  
   118    57   115 1   
   119    58    59 ar  
   120    58   116 1   
   121    59    60 ar  
   122    59   117 1   
   123    60   118 1   
@<TRIPOS>SUBSTRUCTURE
     1 GGX         1 TEMP              0 ****  ****    0 ROOT
