@<TRIPOS>MOLECULE
GGX
  119   123     1     0     0
SMALL
abcg2


@<TRIPOS>ATOM
      1 N1           4.8710     1.7700    -1.2190 n          1 GGX      -0.287000
      2 C2           3.5800     2.2330    -0.7600 c3         1 GGX       0.055700
      3 C3           2.6260     1.0430    -0.6420 c          1 GGX       0.598100
      4 N4           1.9900     0.9540     0.5410 ns         1 GGX      -0.499900
      5 C5           1.2440    -0.2130     0.9690 c3         1 GGX       0.073700
      6 C6          -0.2190     0.1270     1.2700 c3         1 GGX       0.163300
      7 C7          -0.9480     0.6050     0.0200 c3         1 GGX      -0.122400
      8 C8          -2.4490     0.8020     0.2220 c3         1 GGX       0.128700
      9 C9           3.0000     3.4220    -1.5770 c3         1 GGX      -0.047000
     10 O10          2.4590     0.2540    -1.5560 o          1 GGX      -0.591100
     11 C11          1.9580    -0.8710     2.1590 c3         1 GGX      -0.044100
     12 C12          2.6650     3.0700    -3.0260 c3         1 GGX      -0.089433
     13 C13          1.7290     3.9080    -0.8750 c3         1 GGX      -0.089433
     14 C14          4.4210    -0.3770     1.9820 ca         1 GGX      -0.106500
     15 C15          5.6970    -0.6800     1.5270 ca         1 GGX      -0.106000
     16 C16          5.9340    -1.8820     0.8750 ca         1 GGX      -0.111000
     17 C17          4.8890    -2.7790     0.6890 ca         1 GGX      -0.106000
     18 C18          3.6130    -2.4640     1.1350 ca         1 GGX      -0.106500
     19 C19          3.3610    -1.2560     1.7820 ca         1 GGX      -0.091300
     20 C20          6.0330     2.0630    -0.5420 c          1 GGX       0.568000
     21 N21          7.0320     1.5100    -1.2940 n          1 GGX      -0.290000
     22 C22          6.4960     0.8750    -2.4020 cc         1 GGX      -0.189400
     23 C23          5.1660     1.0350    -2.3600 cd         1 GGX      -0.132400
     24 C24          8.4400     1.6010    -0.9820 c3         1 GGX       0.070700
     25 C25          8.9950     0.3010    -0.4550 ca         1 GGX       0.327300
     26 C26         -3.1080     1.4000    -1.0360 c3         1 GGX      -0.053100
     27 O27          6.1500     2.7000     0.4990 o          1 GGX      -0.593000
     28 N28         -3.1290    -0.4040     0.6730 ns         1 GGX      -0.488900
     29 C29         -4.5960     1.4990    -0.8750 ca         1 GGX      -0.075300
     30 C30         -3.2660    -1.5270    -0.0470 c          1 GGX       0.584100
     31 O31         -2.6930    -1.7270    -1.1100 o          1 GGX      -0.611100
     32 C32         -4.2270    -2.5650     0.5380 c3         1 GGX       0.054700
     33 N33         -5.0880    -2.9990    -0.5350 ns         1 GGX      -0.490900
     34 C34         -6.4320    -2.9250    -0.4940 c          1 GGX       0.639100
     35 O35         -6.9520    -3.2870    -1.6730 os         1 GGX      -0.457100
     36 C36         -8.3700    -3.3340    -1.7690 c3         1 GGX       0.170900
     37 C37         -3.5080    -3.7430     1.2480 c3         1 GGX      -0.048000
     38 C38         -2.5670    -3.1930     2.3210 c3         1 GGX      -0.087767
     39 C39         -4.5710    -4.6090     1.9260 c3         1 GGX      -0.087767
     40 C40         -2.7070    -4.6090     0.2750 c3         1 GGX      -0.087767
     41 O41         -7.0980    -2.5870     0.4620 o          1 GGX      -0.549000
     42 C42         -5.1660     2.5100    -0.1030 ca         1 GGX      -0.118500
     43 C43         -6.5300     2.5440     0.1370 ca         1 GGX      -0.080000
     44 C44         -7.3660     1.5500    -0.3740 cp         1 GGX      -0.142500
     45 C45         -6.8020     0.5560    -1.1700 ca         1 GGX      -0.080000
     46 C46         -5.4400     0.5370    -1.4220 ca         1 GGX      -0.118500
     47 N47          8.9480     0.1180     0.8600 nb         1 GGX      -0.664000
     48 C48          9.4020    -1.0210     1.3790 ca         1 GGX       0.359300
     49 C49          9.9310    -2.0300     0.5770 ca         1 GGX      -0.160000
     50 C50          9.9860    -1.8400    -0.7930 ca         1 GGX      -0.072000
     51 C51          9.5140    -0.6500    -1.3240 ca         1 GGX      -0.157000
     52 C52          9.2860    -1.1870     2.8620 c3         1 GGX      -0.148400
     53 C53          4.0320     4.5520    -1.5710 c3         1 GGX      -0.089433
     54 O54         -0.3450     1.0360     2.3430 oh         1 GGX      -0.660000
     55 C55         -8.8110     1.5540    -0.0690 cp         1 GGX       0.402500
     56 N56         -9.4050     2.7400     0.0490 nb         1 GGX      -0.671000
     57 C57        -10.7030     2.7770     0.3200 ca         1 GGX       0.338900
     58 C58        -11.4840     1.6430     0.4870 ca         1 GGX      -0.166000
     59 C59        -10.8640     0.4070     0.3870 ca         1 GGX      -0.075000
     60 C60         -9.5080     0.3580     0.1110 ca         1 GGX      -0.151000
     61 H2           3.7670     2.6230     0.2440 h1         1 GGX       0.085700
     62 HN4          2.2600     1.6060     1.2610 hn         1 GGX       0.309500
     63 H5           1.2480    -0.9190     0.1370 h1         1 GGX       0.094700
     64 H6          -0.6900    -0.7990     1.6120 h1         1 GGX       0.081700
     65 H7          -0.5230     1.5600    -0.3070 hc         1 GGX       0.070200
     66 H7A         -0.7760    -0.1040    -0.7910 hc         1 GGX       0.070200
     67 H8          -2.5940     1.5180     1.0330 h1         1 GGX       0.054700
     68 H11          1.9610    -0.1870     3.0120 hc         1 GGX       0.058200
     69 H11A         1.3850    -1.7510     2.4590 hc         1 GGX       0.058200
     70 H12          1.9020     2.2970    -3.1050 hc         1 GGX       0.040256
     71 H12A         2.2840     3.9590    -3.5310 hc         1 GGX       0.040256
     72 H12B         3.5420     2.7400    -3.5830 hc         1 GGX       0.040256
     73 H13          1.9120     4.1500     0.1740 hc         1 GGX       0.040256
     74 H13A         1.3600     4.8120    -1.3630 hc         1 GGX       0.040256
     75 H13B         0.9250     3.1710    -0.9120 hc         1 GGX       0.040256
     76 H15          6.5050     0.0260     1.6690 ha         1 GGX       0.123500
     77 H16          6.9270    -2.1230     0.5170 ha         1 GGX       0.110000
     78 H17          5.0670    -3.7230     0.1890 ha         1 GGX       0.123500
     79 H18          2.8010    -3.1640     0.9730 ha         1 GGX       0.108000
     80 H22          7.1080     0.3660    -3.1270 h4         1 GGX       0.223000
     81 H23          4.4120     0.6780    -3.0340 h4         1 GGX       0.246000
     82 H24          8.9760     1.9010    -1.8840 h1         1 GGX       0.076700
     83 H24A         8.5700     2.3850    -0.2380 h1         1 GGX       0.076700
     84 H26         -2.6730     2.3900    -1.1960 hc         1 GGX       0.064200
     85 H26A        -2.8580     0.7990    -1.9110 hc         1 GGX       0.064200
     86 HN28        -3.7040    -0.3100     1.4930 hn         1 GGX       0.320500
     87 H32         -4.8600    -2.0810     1.2840 h1         1 GGX       0.083700
     88 HN33        -4.6510    -3.2580    -1.4070 hn         1 GGX       0.344500
     89 H36         -8.8230    -2.3580    -1.5940 h1         1 GGX       0.047367
     90 H36A        -8.5890    -3.6460    -2.7860 h1         1 GGX       0.047367
     91 H36B        -8.7990    -4.0550    -1.0730 h1         1 GGX       0.047367
     92 H38         -3.0830    -2.5370     3.0260 hc         1 GGX       0.039811
     93 H38A        -2.1360    -4.0170     2.8920 hc         1 GGX       0.039811
     94 H38B        -1.7340    -2.6320     1.8940 hc         1 GGX       0.039811
     95 H39         -5.2240    -5.0960     1.2010 hc         1 GGX       0.039811
     96 H39A        -4.0920    -5.3960     2.5120 hc         1 GGX       0.039811
     97 H39B        -5.1950    -4.0240     2.6040 hc         1 GGX       0.039811
     98 H40         -1.8900    -4.0600    -0.1930 hc         1 GGX       0.039811
     99 H40A        -2.2730    -5.4530     0.8140 hc         1 GGX       0.039811
    100 H40B        -3.3350    -5.0230    -0.5150 hc         1 GGX       0.039811
    101 H42         -4.5350     3.2780     0.3290 ha         1 GGX       0.116000
    102 H43         -6.9500     3.3360     0.7420 ha         1 GGX       0.121000
    103 H45         -7.4310    -0.2000    -1.6210 ha         1 GGX       0.121000
    104 H46         -5.0260    -0.2420    -2.0500 ha         1 GGX       0.116000
    105 H49         10.2970    -2.9450     1.0260 ha         1 GGX       0.124000
    106 H50         10.3990    -2.6050    -1.4370 ha         1 GGX       0.120000
    107 H51          9.5550    -0.4610    -2.3890 ha         1 GGX       0.121000
    108 H52          8.2640    -1.4670     3.1310 hc         1 GGX       0.054367
    109 H52A         9.9480    -1.9670     3.2330 hc         1 GGX       0.054367
    110 H52B         9.5140    -0.2560     3.3790 hc         1 GGX       0.054367
    111 H53          4.9340     4.2770    -2.1180 hc         1 GGX       0.040256
    112 H53A         3.6160     5.4380    -2.0540 hc         1 GGX       0.040256
    113 H53B         4.3260     4.8290    -0.5570 hc         1 GGX       0.040256
    114 HO54        -0.1080     1.9160     2.0310 ho         1 GGX       0.438000
    115 H57        -11.1480     3.7630     0.4060 h4         1 GGX       0.017100
    116 H58        -12.5400     1.7320     0.6990 ha         1 GGX       0.122000
    117 H59        -11.4250    -0.5070     0.5340 ha         1 GGX       0.119000
    118 H60         -8.9890    -0.5910     0.0720 ha         1 GGX       0.139000
    119 H14          4.2500     0.5650     2.4910 ha         1 GGX       0.108000
@<TRIPOS>BOND
     1     1     2 1   
     2     1    20 1   
     3     1    23 1   
     4     2     3 1   
     5     2     9 1   
     6     2    61 1   
     7     3     4 1   
     8     3    10 2   
     9     4     5 1   
    10     4    62 1   
    11     5     6 1   
    12     5    11 1   
    13     5    63 1   
    14     6     7 1   
    15     6    54 1   
    16     6    64 1   
    17     7     8 1   
    18     7    65 1   
    19     7    66 1   
    20     8    26 1   
    21     8    28 1   
    22     8    67 1   
    23     9    12 1   
    24     9    13 1   
    25     9    53 1   
    26    11    19 1   
    27    11    68 1   
    28    11    69 1   
    29    12    70 1   
    30    12    71 1   
    31    12    72 1   
    32    13    73 1   
    33    13    74 1   
    34    13    75 1   
    35    14    15 ar  
    36    14    19 ar  
    37    14   119 1   
    38    15    16 ar  
    39    15    76 1   
    40    16    17 ar  
    41    16    77 1   
    42    17    18 ar  
    43    17    78 1   
    44    18    19 ar  
    45    18    79 1   
    46    20    21 1   
    47    20    27 2   
    48    21    22 1   
    49    21    24 1   
    50    22    23 2   
    51    22    80 1   
    52    23    81 1   
    53    24    25 1   
    54    24    82 1   
    55    24    83 1   
    56    25    47 ar  
    57    25    51 ar  
    58    26    29 1   
    59    26    84 1   
    60    26    85 1   
    61    28    30 1   
    62    28    86 1   
    63    29    42 ar  
    64    29    46 ar  
    65    30    31 2   
    66    30    32 1   
    67    32    33 1   
    68    32    37 1   
    69    32    87 1   
    70    33    34 1   
    71    33    88 1   
    72    34    35 1   
    73    34    41 2   
    74    35    36 1   
    75    36    89 1   
    76    36    90 1   
    77    36    91 1   
    78    37    38 1   
    79    37    39 1   
    80    37    40 1   
    81    38    92 1   
    82    38    93 1   
    83    38    94 1   
    84    39    95 1   
    85    39    96 1   
    86    39    97 1   
    87    40    98 1   
    88    40    99 1   
    89    40   100 1   
    90    42    43 ar  
    91    42   101 1   
    92    43    44 ar  
    93    43   102 1   
    94    44    45 ar  
    95    44    55 1   
    96    45    46 ar  
    97    45   103 1   
    98    46   104 1   
    99    47    48 ar  
   100    48    49 ar  
   101    48    52 1   
   102    49    50 ar  
   103    49   105 1   
   104    50    51 ar  
   105    50   106 1   
   106    51   107 1   
   107    52   108 1   
   108    52   109 1   
   109    52   110 1   
   110    53   111 1   
   111    53   112 1   
   112    53   113 1   
   113    54   114 1   
   114    55    56 ar  
   115    55    60 ar  
   116    56    57 ar  
   117    57    58 ar  
   118    57   115 1   
   119    58    59 ar  
   120    58   116 1   
   121    59    60 ar  
   122    59   117 1   
   123    60   118 1   
@<TRIPOS>SUBSTRUCTURE
     1 GGX         1 TEMP              0 ****  ****    0 ROOT
