@<TRIPOS>MOLECULE
GGY
   59    61     1     0     0
SMALL
No Charge or Current Charge


@<TRIPOS>ATOM
      1 C01          0.5840   -11.0430    15.8180 c3         1 GGY      -0.090100
      2 C02          1.2910   -10.4070    14.6100 c3         1 GGY       0.203500
      3 C03          1.8070   -11.4600    13.6420 c2         1 GGY      -0.169200
      4 C04          1.2170   -11.8840    12.5030 c2         1 GGY      -0.304200
      5 C05         -0.1030   -11.4220    11.9130 c3         1 GGY       0.324200
      6 F06         -0.4480   -12.1660    10.8390 f          1 GGY      -0.111667
      7 F07         -0.0450   -10.1360    11.5040 f          1 GGY      -0.111667
      8 F08         -1.1120   -11.5190    12.8070 f          1 GGY      -0.111667
      9 O09          2.4190    -9.6740    15.1300 os         1 GGY      -0.383100
     10 C10          3.2520    -8.8890    14.3490 ca         1 GGY       0.168100
     11 C11          2.8830    -8.5560    13.0270 ca         1 GGY      -0.204000
     12 C12          3.7150    -7.7920    12.1830 cp         1 GGY       0.036000
     13 C13          3.2950    -7.5200    10.7730 cp         1 GGY      -0.163000
     14 C14          2.7030    -8.5490    10.0040 ca         1 GGY      -0.017000
     15 C15          2.2770    -8.2840     8.6900 ca         1 GGY      -0.113000
     16 C16          1.6480    -9.3460     7.8940 cc         1 GGY      -0.126000
     17 C17          0.7900    -9.0740     6.8570 cd         1 GGY      -0.108000
     18 C18          0.2450   -10.2430     6.2490 cd         1 GGY      -0.094300
     19 C19         -0.7260   -10.1960     5.0900 c3         1 GGY       0.227100
     20 N20         -2.0130    -9.5340     5.4200 n3         1 GGY      -0.714600
     21 C21         -2.8600    -9.3280     4.2250 c3         1 GGY       0.148100
     22 C22         -2.7470   -10.2030     6.5200 c3         1 GGY       0.148100
     23 C23          0.6960   -11.4010     6.8440 cc         1 GGY      -0.230000
     24 S24          1.7940   -11.0740     8.1810 ss         1 GGY       0.156000
     25 C25          2.4800    -6.9790     8.1850 ca         1 GGY       0.411900
     26 N26          3.0430    -5.9770     8.9010 nb         1 GGY      -0.745000
     27 C27          3.4260    -6.2620    10.1370 ca         1 GGY       0.616900
     28 N28          3.8960    -5.1520    10.7130 nv         1 GGY      -1.052900
     29 C29          4.9460    -7.3480    12.7050 ca         1 GGY      -0.153000
     30 C30          5.3210    -7.6440    14.0250 ca         1 GGY      -0.029000
     31 C31          4.4870    -8.4140    14.8690 ca         1 GGY      -0.179600
     32 C32          4.9760    -8.6940    16.2780 c          1 GGY       0.617700
     33 N33          4.2080    -9.4120    17.1180 nt         1 GGY      -0.601000
     34 O34          6.0520    -8.2900    16.6880 o          1 GGY      -0.627100
     35 H011         0.2310   -10.2680    16.5080 hc         1 GGY       0.057700
     36 H012        -0.2820   -11.6290    15.4900 hc         1 GGY       0.057700
     37 H013         1.2640   -11.7110    16.3600 hc         1 GGY       0.057700
     38 H02          0.5810    -9.7310    14.1150 h1         1 GGY       0.070700
     39 H03          2.7640   -11.8880    13.9460 ha         1 GGY       0.201000
     40 H04          1.7070   -12.6510    11.9010 ha         1 GGY       0.216000
     41 H11          1.9330    -8.8840    12.6260 ha         1 GGY       0.125000
     42 H29          5.6290    -6.7800    12.0770 ha         1 GGY       0.134000
     43 H14          2.5740    -9.5390    10.4350 ha         1 GGY       0.118000
     44 H25          2.1880    -6.7190     7.1690 h4         1 GGY       0.025100
     45 H17          0.5230    -8.0750     6.5300 ha         1 GGY       0.144000
     46 H191        -0.2340    -9.6610     4.2660 h1         1 GGY       0.039200
     47 H192        -0.9090   -11.2220     4.7410 h1         1 GGY       0.039200
     48 H23          0.4530   -12.4270     6.6010 h4         1 GGY       0.148000
     49 H211        -3.7680    -8.7660     4.4840 h1         1 GGY       0.032533
     50 H212        -2.3190    -8.7570     3.4590 h1         1 GGY       0.032533
     51 H213        -3.1630   -10.2890     3.7890 h1         1 GGY       0.032533
     52 H221        -3.6710    -9.6600     6.7560 h1         1 GGY       0.032533
     53 H222        -3.0150   -11.2320     6.2440 h1         1 GGY       0.032533
     54 H223        -2.1410   -10.2400     7.4350 h1         1 GGY       0.032533
     55 H281         3.6750    -4.3010    10.2130 hn         1 GGY       0.479500
     56 H282         3.8540    -5.1050    11.7240 hn         1 GGY       0.479500
     57 H30          6.2800    -7.2770    14.3870 ha         1 GGY       0.147000
     58 H331         4.5300    -9.5990    18.0550 hn         1 GGY       0.325000
     59 H332         3.3150    -9.7540    16.7910 hn         1 GGY       0.325000
@<TRIPOS>BOND
     1     1     2 1   
     2     1    35 1   
     3     1    36 1   
     4     1    37 1   
     5     2     3 1   
     6     2     9 1   
     7     2    38 1   
     8     3     4 2   
     9     3    39 1   
    10     4     5 1   
    11     4    40 1   
    12     5     6 1   
    13     5     7 1   
    14     5     8 1   
    15     9    10 1   
    16    10    11 ar  
    17    10    31 ar  
    18    11    12 ar  
    19    11    41 1   
    20    12    13 1   
    21    12    29 ar  
    22    13    14 ar  
    23    13    27 ar  
    24    14    15 ar  
    25    14    43 1   
    26    15    16 1   
    27    15    25 ar  
    28    16    17 2   
    29    16    24 1   
    30    17    18 1   
    31    17    45 1   
    32    18    19 1   
    33    18    23 2   
    34    19    20 1   
    35    19    46 1   
    36    19    47 1   
    37    20    21 1   
    38    20    22 1   
    39    21    49 1   
    40    21    50 1   
    41    21    51 1   
    42    22    52 1   
    43    22    53 1   
    44    22    54 1   
    45    23    24 1   
    46    23    48 1   
    47    25    26 ar  
    48    25    44 1   
    49    26    27 ar  
    50    27    28 1   
    51    28    55 1   
    52    28    56 1   
    53    29    30 ar  
    54    29    42 1   
    55    30    31 ar  
    56    30    57 1   
    57    31    32 1   
    58    32    33 1   
    59    32    34 2   
    60    33    58 1   
    61    33    59 1   
@<TRIPOS>SUBSTRUCTURE
     1 GGY         1 TEMP              0 ****  ****    0 ROOT
