@<TRIPOS>MOLECULE
GGY
   59    61     1     0     0
SMALL
abcg2


@<TRIPOS>ATOM
      1 C01          0.6560   -11.0830    15.7180 c3         1 GGY      -0.090100
      2 C02          1.3030   -10.3640    14.5440 c3         1 GGY       0.203500
      3 C03          1.7260   -11.3290    13.4710 c2         1 GGY      -0.169200
      4 C04          1.0750   -11.6660    12.3650 c2         1 GGY      -0.304200
      5 C05         -0.2380   -11.1020    11.9270 c3         1 GGY       0.324200
      6 F06         -0.8320   -11.9110    11.0230 f          1 GGY      -0.111667
      7 F07         -0.1170    -9.8880    11.3300 f          1 GGY      -0.111667
      8 F08         -1.1190   -10.9320    12.9400 f          1 GGY      -0.111667
      9 O09          2.4710    -9.7110    15.0900 os         1 GGY      -0.383100
     10 C10          3.2610    -8.9240    14.3060 ca         1 GGY       0.168100
     11 C11          2.8520    -8.5070    13.0440 ca         1 GGY      -0.204000
     12 C12          3.6740    -7.7270    12.2280 cp         1 GGY       0.036000
     13 C13          3.2210    -7.4170    10.8550 cp         1 GGY      -0.163000
     14 C14          2.6270    -8.4150    10.0990 ca         1 GGY      -0.017000
     15 C15          2.1690    -8.1820     8.7990 ca         1 GGY      -0.113000
     16 C16          1.5230    -9.2180     7.9990 cc         1 GGY      -0.126000
     17 C17          0.7010    -9.0720     6.9100 cd         1 GGY      -0.108000
     18 C18          0.2350   -10.3050     6.3670 cd         1 GGY      -0.094300
     19 C19         -0.6770   -10.3990     5.1790 c3         1 GGY       0.227100
     20 N20         -1.9210    -9.6510     5.3620 n3         1 GGY      -0.714600
     21 C21         -2.6730    -9.5920     4.1160 c3         1 GGY       0.148100
     22 C22         -2.7350   -10.2080     6.4350 c3         1 GGY       0.148100
     23 C23          0.7140   -11.3810     7.0600 cc         1 GGY      -0.230000
     24 S24          1.7360   -10.9090     8.3630 ss         1 GGY       0.156000
     25 C25          2.3620    -6.8900     8.3070 ca         1 GGY       0.411900
     26 N26          2.9080    -5.9020     9.0090 nb         1 GGY      -0.745000
     27 C27          3.3270    -6.1320    10.2620 ca         1 GGY       0.616900
     28 N28          3.8750    -5.0640    10.9190 nv         1 GGY      -1.052900
     29 C29          4.9190    -7.3290    12.7220 ca         1 GGY      -0.153000
     30 C30          5.3110    -7.7190    13.9890 ca         1 GGY      -0.029000
     31 C31          4.5160    -8.5220    14.8110 ca         1 GGY      -0.179600
     32 C32          5.0960    -8.8820    16.1500 c          1 GGY       0.617700
     33 N33          4.3910    -9.6980    16.9540 nt         1 GGY      -0.601000
     34 O34          6.1970    -8.4400    16.4930 o          1 GGY      -0.627100
     35 H011         0.4260   -10.3660    16.5060 hc         1 GGY       0.057700
     36 H012        -0.2670   -11.5600    15.3920 hc         1 GGY       0.057700
     37 H013         1.3270   -11.8460    16.1140 hc         1 GGY       0.057700
     38 H02          0.6240    -9.6000    14.1630 h1         1 GGY       0.070700
     39 H03          2.6770   -11.8160    13.6640 ha         1 GGY       0.201000
     40 H04          1.4900   -12.3920    11.6790 ha         1 GGY       0.216000
     41 H11          1.8800    -8.7850    12.6740 ha         1 GGY       0.125000
     42 H29          5.5900    -6.7420    12.1100 ha         1 GGY       0.134000
     43 H14          2.5220    -9.3990    10.5360 ha         1 GGY       0.118000
     44 H25          2.0630    -6.6430     7.2940 h4         1 GGY       0.025100
     45 H17          0.4070    -8.1090     6.5150 ha         1 GGY       0.144000
     46 H191        -0.1730    -9.9810     4.3030 h1         1 GGY       0.039200
     47 H192        -0.8770   -11.4620     4.9600 h1         1 GGY       0.039200
     48 H23          0.5120   -12.4250     6.8800 h4         1 GGY       0.148000
     49 H211        -3.5710    -8.9900     4.2570 h1         1 GGY       0.032533
     50 H212        -2.0630    -9.1300     3.3380 h1         1 GGY       0.032533
     51 H213        -2.9820   -10.5910     3.7630 h1         1 GGY       0.032533
     52 H221        -3.6330    -9.6010     6.5630 h1         1 GGY       0.032533
     53 H222        -3.0470   -11.2460     6.2250 h1         1 GGY       0.032533
     54 H223        -2.1770   -10.2040     7.3710 h1         1 GGY       0.032533
     55 H281         3.6670    -4.1600    10.5230 hn         1 GGY       0.479500
     56 H282         3.9130    -5.0910    11.9250 hn         1 GGY       0.479500
     57 H30          6.2770    -7.4210    14.3720 ha         1 GGY       0.147000
     58 H331         4.7840    -9.9440    17.8480 hn         1 GGY       0.325000
     59 H332         3.4940   -10.0610    16.6760 hn         1 GGY       0.325000
@<TRIPOS>BOND
     1     1     2 1   
     2     1    35 1   
     3     1    36 1   
     4     1    37 1   
     5     2     3 1   
     6     2     9 1   
     7     2    38 1   
     8     3     4 2   
     9     3    39 1   
    10     4     5 1   
    11     4    40 1   
    12     5     6 1   
    13     5     7 1   
    14     5     8 1   
    15     9    10 1   
    16    10    11 ar  
    17    10    31 ar  
    18    11    12 ar  
    19    11    41 1   
    20    12    13 1   
    21    12    29 ar  
    22    13    14 ar  
    23    13    27 ar  
    24    14    15 ar  
    25    14    43 1   
    26    15    16 1   
    27    15    25 ar  
    28    16    17 2   
    29    16    24 1   
    30    17    18 1   
    31    17    45 1   
    32    18    19 1   
    33    18    23 2   
    34    19    20 1   
    35    19    46 1   
    36    19    47 1   
    37    20    21 1   
    38    20    22 1   
    39    21    49 1   
    40    21    50 1   
    41    21    51 1   
    42    22    52 1   
    43    22    53 1   
    44    22    54 1   
    45    23    24 1   
    46    23    48 1   
    47    25    26 ar  
    48    25    44 1   
    49    26    27 ar  
    50    27    28 1   
    51    28    55 1   
    52    28    56 1   
    53    29    30 ar  
    54    29    42 1   
    55    30    31 ar  
    56    30    57 1   
    57    31    32 1   
    58    32    33 1   
    59    32    34 2   
    60    33    58 1   
    61    33    59 1   
@<TRIPOS>SUBSTRUCTURE
     1 GGY         1 TEMP              0 ****  ****    0 ROOT
