@<TRIPOS>MOLECULE
GGZ
   41    44     1     0     0
SMALL
bcc


@<TRIPOS>ATOM
      1 C2           1.5360     1.9510    -2.9720 ca         1 GGZ       0.728900
      2 C4           2.1590     1.4690    -0.9190 ca         1 GGZ       0.463800
      3 C5           2.9980     2.5680    -0.8580 ca         1 GGZ      -0.181200
      4 C6           3.0760     3.3570    -2.0170 ca         1 GGZ       0.799200
      5 C8           3.1490     1.6360     1.0240 cc         1 GGZ       0.412700
      6 N1           2.2960     3.0360    -3.0520 nb         1 GGZ      -0.817000
      7 P1          -0.8200    -2.9600     0.5290 p5         1 GGZ       1.562500
      8 O2          -0.4050    -1.4890     1.0340 os         1 GGZ      -0.556200
      9 O1P         -0.5340    -4.0570     1.4670 o          1 GGZ      -0.787300
     10 O3           0.0020    -2.9220    -0.8510 os         1 GGZ      -0.540200
     11 C3           0.8830    -1.8070    -0.9340 c5         1 GGZ       0.109100
     12 C9           2.3150    -2.1620    -0.4980 c5         1 GGZ       0.109100
     13 C10          3.3430    -1.8520    -1.5680 c3         1 GGZ       0.196400
     14 O5           4.6070    -2.2280    -1.0710 os         1 GGZ      -0.560200
     15 P2           5.9550    -1.7280    -1.8570 p5         1 GGZ       1.454800
     16 O4P          7.0970    -2.3590    -1.1320 o          1 GGZ      -0.833000
     17 O5P          5.7690    -1.8580    -3.3310 o          1 GGZ      -0.833000
     18 O6P          5.9150    -0.1250    -1.4060 os         1 GGZ      -0.705100
     19 S2           6.0660     1.1490    -2.4330 s6         1 GGZ       1.557300
     20 OS3          4.8440     1.1630    -3.2370 o          1 GGZ      -0.744867
     21 OS2          6.1970     2.2600    -1.4910 o          1 GGZ      -0.744867
     22 OS1          7.2870     0.8900    -3.2020 o          1 GGZ      -0.744867
     23 C7           0.4070    -0.7740     0.1080 c5         1 GGZ       0.110100
     24 C1           1.6900    -0.3580     0.8250 c5         1 GGZ       0.264800
     25 O4           2.5540    -1.4450     0.7080 os         1 GGZ      -0.369600
     26 N9           2.2630     0.8690     0.3090 na         1 GGZ      -0.295000
     27 N7           3.6040     2.6560     0.3680 nd         1 GGZ      -0.511100
     28 N6           3.8590     4.4440    -2.0990 nv         1 GGZ      -0.931500
     29 N3           1.4120     1.1110    -1.9590 nb         1 GGZ      -0.797000
     30 H2           0.9380     1.7300    -3.8500 h5         1 GGZ       0.021100
     31 H8           3.4050     1.3820     2.0420 h5         1 GGZ       0.053800
     32 HO3P        -2.9220    -3.4860     0.4720 ho         1 GGZ       0.466000
     33 H3           0.8350    -1.4150    -1.9480 h1         1 GGZ       0.135700
     34 H4           2.3810    -3.2270    -0.2570 h1         1 GGZ       0.089700
     35 H5'1         3.3150    -0.7960    -1.8500 h1         1 GGZ       0.041700
     36 H5'2         3.0790    -2.4300    -2.4610 h1         1 GGZ       0.041700
     37 H6          -0.1640     0.0530    -0.3090 h1         1 GGZ       0.110700
     38 H1           1.5040    -0.1850     1.8850 h2         1 GGZ       0.090700
     39 HN61         4.6480     4.4940    -1.4760 hn         1 GGZ       0.435800
     40 HN62         4.0050     4.8390    -3.0130 hn         1 GGZ       0.435800
     41 O3P         -2.3330    -2.8370     0.0630 oh         1 GGZ      -0.738400
@<TRIPOS>BOND
     1     1     6 ar  
     2     1    29 ar  
     3     1    30 1   
     4     2     3 ar  
     5     2    26 1   
     6     2    29 ar  
     7     3     4 ar  
     8     3    27 1   
     9     4     6 ar  
    10     4    28 1   
    11     5    26 1   
    12     5    27 2   
    13     5    31 1   
    14     7     8 1   
    15     7     9 2   
    16     7    10 1   
    17     7    41 1   
    18     8    23 1   
    19    10    11 1   
    20    11    12 1   
    21    11    23 1   
    22    11    33 1   
    23    12    13 1   
    24    12    25 1   
    25    12    34 1   
    26    13    14 1   
    27    13    35 1   
    28    13    36 1   
    29    14    15 1   
    30    15    16 1   
    31    15    17 1   
    32    15    18 1   
    33    18    19 1   
    34    19    20 1   
    35    19    21 1   
    36    19    22 1   
    37    23    24 1   
    38    23    37 1   
    39    24    25 1   
    40    24    26 1   
    41    24    38 1   
    42    28    39 1   
    43    28    40 1   
    44    32    41 1   
@<TRIPOS>SUBSTRUCTURE
     1 GGZ         1 TEMP              0 ****  ****    0 ROOT
