@<TRIPOS>MOLECULE
GGZ
   41    44     1     0     0
SMALL
No Charge or Current Charge


@<TRIPOS>ATOM
      1 C2           1.6550     1.9930    -3.2020 ca         1 GGZ       0.202900
      2 C4           1.9170     1.5920    -0.9620 ca         1 GGZ       0.135500
      3 C5           2.5330     2.8110    -0.8220 ca         1 GGZ      -0.050600
      4 C6           2.6860     3.6190    -1.9690 ca         1 GGZ       0.470900
      5 C8           2.5270     1.9580     1.1510 cc         1 GGZ       0.412700
      6 N1           2.2470     3.2100    -3.1700 nb         1 GGZ      -0.291000
      7 P1          -0.4190    -2.9890     0.9820 p5         1 GGZ       1.333200
      8 O2          -0.8420    -1.4580     0.7870 os         1 GGZ      -0.579400
      9 O1P          0.4630    -3.3450     2.1240 o          1 GGZ      -0.558000
     10 O3           0.1250    -3.1890    -0.5110 os         1 GGZ      -0.563400
     11 C3           0.7970    -1.9670    -0.9280 c5         1 GGZ       0.132300
     12 C9           2.2910    -2.0100    -0.4430 c5         1 GGZ       0.132300
     13 C10          3.3260    -1.4350    -1.4570 c3         1 GGZ       0.219600
     14 O5           4.4320    -2.3430    -1.5380 os         1 GGZ      -0.583400
     15 P2           5.6760    -1.9660    -2.4930 p5         1 GGZ       1.454800
     16 O4P          6.5510    -3.1700    -2.6260 o          1 GGZ      -0.833000
     17 O5P          5.1550    -1.4840    -3.8070 o          1 GGZ      -0.833000
     18 O6P          6.3000    -0.8780    -1.5380 os         1 GGZ      -0.705100
     19 S2           7.2540     0.2050    -2.2320 s6         1 GGZ       1.557300
     20 OS3          6.3310     1.1650    -2.8520 o          1 GGZ      -0.744867
     21 OS2          7.9960     0.7650    -1.0930 o          1 GGZ      -0.744867
     22 OS1          8.1030    -0.5320    -3.1790 o          1 GGZ      -0.744867
     23 C7           0.1270    -0.8100    -0.0890 c5         1 GGZ       0.133300
     24 C1           1.3080    -0.2170     0.7530 c5         1 GGZ       0.317300
     25 O4           2.3100    -1.2550     0.7950 os         1 GGZ      -0.416000
     26 N9           1.9160     1.0380     0.2940 na         1 GGZ      -0.324300
     27 N7           2.9240     3.0620     0.4960 nd         1 GGZ      -0.511100
     28 N6           3.2780     4.8470    -1.9350 nv         1 GGZ      -1.041900
     29 N3           1.4640     1.1560    -2.1540 nb         1 GGZ      -0.271000
     30 H2           1.2950     1.6520    -4.1710 h5         1 GGZ       0.021100
     31 H8           2.6450     1.7700     2.2110 h5         1 GGZ       0.053800
     32 HO3P        -2.1150    -3.1550     0.1210 ho         1 GGZ       0.475000
     33 H3           0.6930    -1.8280    -2.0140 h1         1 GGZ       0.135700
     34 H4           2.5870    -3.0440    -0.2200 h1         1 GGZ       0.089700
     35 H5'1         3.6660    -0.4450    -1.1280 h1         1 GGZ       0.041700
     36 H5'2         2.8520    -1.3250    -2.4410 h1         1 GGZ       0.041700
     37 H6          -0.3820    -0.0580    -0.7070 h1         1 GGZ       0.110700
     38 H1           0.9580    -0.0060     1.7720 h2         1 GGZ       0.090700
     39 HN61         3.8080     5.0750    -1.0980 hn         1 GGZ       0.491000
     40 HN62         3.6140     5.2390    -2.8090 hn         1 GGZ       0.491000
     41 O3P         -1.8360    -3.6890     0.8860 oh         1 GGZ      -0.747400
@<TRIPOS>BOND
     1     1     6 ar  
     2     1    29 ar  
     3     1    30 1   
     4     2     3 ar  
     5     2    26 1   
     6     2    29 ar  
     7     3     4 ar  
     8     3    27 1   
     9     4     6 ar  
    10     4    28 1   
    11     5    26 1   
    12     5    27 2   
    13     5    31 1   
    14     7     8 1   
    15     7     9 2   
    16     7    10 1   
    17     7    41 1   
    18     8    23 1   
    19    10    11 1   
    20    11    12 1   
    21    11    23 1   
    22    11    33 1   
    23    12    13 1   
    24    12    25 1   
    25    12    34 1   
    26    13    14 1   
    27    13    35 1   
    28    13    36 1   
    29    14    15 1   
    30    15    16 1   
    31    15    17 1   
    32    15    18 1   
    33    18    19 1   
    34    19    20 1   
    35    19    21 1   
    36    19    22 1   
    37    23    24 1   
    38    23    37 1   
    39    24    25 1   
    40    24    26 1   
    41    24    38 1   
    42    28    39 1   
    43    28    40 1   
    44    32    41 1   
@<TRIPOS>SUBSTRUCTURE
     1 GGZ         1 TEMP              0 ****  ****    0 ROOT
