@<TRIPOS>MOLECULE
GH0
   14    13     1     0     0
SMALL
abcg2


@<TRIPOS>ATOM
      1 N           34.5700     4.4550    31.6600 n8         1 GH0      -0.993200
      2 C1          34.5100     5.1470    30.3820 c3         1 GH0       0.151800
      3 C2          34.8780     4.2320    29.2360 c3         1 GH0       0.213600
      4 O1          33.8960     3.2040    29.1560 os         1 GH0      -0.608700
      5 O2          32.9450     1.1970    28.2620 o          1 GH0      -0.712533
      6 O3          35.3450     1.6210    27.9110 o          1 GH0      -0.712533
      7 O4          33.6790     2.9580    26.7020 o          1 GH0      -0.712533
      8 S           33.9810     2.1580    27.8920 s6         1 GH0       1.501300
      9 H5          34.4050     5.1180    32.4060 hn         1 GH0       0.388000
     10 H6          33.8150     3.7850    31.7180 hn         1 GH0       0.388000
     11 H1          35.2450     5.9560    30.3920 h1         1 GH0       0.013700
     12 H2          33.5380     5.6150    30.1690 h1         1 GH0       0.013700
     13 H3          35.8700     3.8040    29.4120 h1         1 GH0       0.035200
     14 H4          34.9140     4.8110    28.3070 h1         1 GH0       0.035200
@<TRIPOS>BOND
     1     1     2 1   
     2     1     9 1   
     3     1    10 1   
     4     2     3 1   
     5     2    11 1   
     6     2    12 1   
     7     3     4 1   
     8     3    13 1   
     9     3    14 1   
    10     4     8 1   
    11     5     8 1   
    12     6     8 1   
    13     7     8 1   
@<TRIPOS>SUBSTRUCTURE
     1 GH0         1 TEMP              0 ****  ****    0 ROOT
