@<TRIPOS>MOLECULE
GH0
   14    13     1     0     0
SMALL
No Charge or Current Charge


@<TRIPOS>ATOM
      1 N           34.6130     4.4920    31.7060 n8         1 GH0      -0.993200
      2 C1          34.5770     5.1840    30.3930 c3         1 GH0       0.151800
      3 C2          34.8560     4.2490    29.1790 c3         1 GH0       0.213600
      4 O1          33.8650     3.2020    29.1640 os         1 GH0      -0.608700
      5 O2          32.8700     1.1900    28.1810 o          1 GH0      -0.712533
      6 O3          35.3130     1.5480    28.0640 o          1 GH0      -0.712533
      7 O4          33.7940     2.9570    26.7210 o          1 GH0      -0.712533
      8 S           33.9700     2.1310    27.9250 s6         1 GH0       1.501300
      9 H5          34.1850     5.0990    32.4150 hn         1 GH0       0.388000
     10 H6          33.9710     3.6920    31.6460 hn         1 GH0       0.388000
     11 H1          35.3130     5.9990    30.4090 h1         1 GH0       0.013700
     12 H2          33.5810     5.6310    30.2710 h1         1 GH0       0.013700
     13 H3          35.8700     3.8360    29.2710 h1         1 GH0       0.035200
     14 H4          34.8130     4.8490    28.2600 h1         1 GH0       0.035200
@<TRIPOS>BOND
     1     1     2 1   
     2     1     9 1   
     3     1    10 1   
     4     2     3 1   
     5     2    11 1   
     6     2    12 1   
     7     3     4 1   
     8     3    13 1   
     9     3    14 1   
    10     4     8 1   
    11     5     8 1   
    12     6     8 1   
    13     7     8 1   
@<TRIPOS>SUBSTRUCTURE
     1 GH0         1 TEMP              0 ****  ****    0 ROOT
