@<TRIPOS>MOLECULE
GH1
   43    45     1     0     0
SMALL
abcg2


@<TRIPOS>ATOM
      1 C13          0.1000    -1.1490    -0.0350 ca         1 GH1       0.148100
      2 C15          1.9460    -0.0300    -1.0910 ca         1 GH1      -0.060000
      3 C17          2.3120    -2.0940     0.0450 ca         1 GH1      -0.060000
      4 C20          5.1290    -0.6050     0.1970 c5         1 GH1      -0.036700
      5 C21          6.6070    -0.5250    -0.1370 c          1 GH1       0.574000
      6 C24          6.3080     1.6380     0.7590 c          1 GH1       0.593600
      7 C01         -9.3700     0.7940     0.3210 c3         1 GH1       0.147900
      8 C03         -7.0210     0.4990     0.1560 ca         1 GH1       0.133100
      9 C04         -6.8580     1.6650    -0.5920 ca         1 GH1      -0.173000
     10 C05         -5.5890     2.0340    -1.0200 ca         1 GH1      -0.083000
     11 C06         -4.4800     1.2650    -0.7160 ca         1 GH1      -0.119000
     12 C07         -4.6410     0.0990     0.0350 ca         1 GH1      -0.139600
     13 C08         -5.9070    -0.2770     0.4670 ca         1 GH1      -0.090000
     14 C09         -3.4900    -0.7710     0.3970 c          1 GH1       0.578700
     15 C14          0.5930    -0.0790    -0.7720 ca         1 GH1      -0.167500
     16 C16          2.8240    -1.0290    -0.6970 ca         1 GH1      -0.136300
     17 C18          0.9720    -2.1600     0.3750 ca         1 GH1      -0.167500
     18 C19          4.2870    -0.9580    -1.0310 c3         1 GH1      -0.000100
     19 N23          7.1330     0.6880     0.2070 ns         1 GH1      -0.483500
     20 O10         -3.6300    -1.7740     1.0550 o          1 GH1      -0.481100
     21 O12         -1.1920    -1.3020     0.3280 os         1 GH1      -0.316100
     22 O25          6.6430     2.7410     1.0950 o          1 GH1      -0.464000
     23 S26          4.6670     1.0070     0.9010 ss         1 GH1      -0.261600
     24 H1           2.3140     0.8110    -1.6660 ha         1 GH1       0.115000
     25 H2           2.9700    -2.8920     0.3700 ha         1 GH1       0.115000
     26 H3          -9.3340     1.7970     0.7540 h1         1 GH1       0.042700
     27 H4          -9.5380     0.8790    -0.7550 h1         1 GH1       0.042700
     28 H5         -10.2000     0.2510     0.7650 h1         1 GH1       0.042700
     29 H6          -7.7000     2.2930    -0.8490 ha         1 GH1       0.120000
     30 H7          -5.4730     2.9390    -1.6010 ha         1 GH1       0.116000
     31 H8          -3.5090     1.5860    -1.0670 ha         1 GH1       0.113000
     32 H9          -6.0390    -1.1800     1.0500 ha         1 GH1       0.150000
     33 H11         -2.1480    -0.2650    -1.1910 h1         1 GH1       0.056200
     34 H12         -1.8930     0.6510     0.2980 h1         1 GH1       0.056200
     35 H13         -0.0470     0.7250    -1.1090 ha         1 GH1       0.126500
     36 H14          0.5890    -2.9970     0.9450 ha         1 GH1       0.126500
     37 H15          4.4600    -0.2180    -1.8150 hc         1 GH1       0.068200
     38 H16          4.6360    -1.9220    -1.4070 hc         1 GH1       0.068200
     39 H17          8.1110     0.9010     0.0430 hn         1 GH1       0.352500
     40 H19          5.0030    -1.3680     0.9690 h1         1 GH1       0.115700
     41 O22          7.2290    -1.4210    -0.6500 o          1 GH1      -0.486000
     42 C11         -2.1220    -0.3480    -0.0970 c3         1 GH1       0.058600
     43 O02         -8.2020     0.0510     0.6150 os         1 GH1      -0.337100
@<TRIPOS>BOND
     1     1    15 ar  
     2     1    17 ar  
     3     1    21 1   
     4     2    15 ar  
     5     2    16 ar  
     6     2    24 1   
     7     3    16 ar  
     8     3    17 ar  
     9     3    25 1   
    10     4     5 1   
    11     4    18 1   
    12     4    23 1   
    13     4    40 1   
    14     5    19 1   
    15     5    41 2   
    16     6    19 1   
    17     6    22 2   
    18     6    23 1   
    19     7    26 1   
    20     7    27 1   
    21     7    28 1   
    22     7    43 1   
    23     8     9 ar  
    24     8    13 ar  
    25     8    43 1   
    26     9    10 ar  
    27     9    29 1   
    28    10    11 ar  
    29    10    30 1   
    30    11    12 ar  
    31    11    31 1   
    32    12    13 ar  
    33    12    14 1   
    34    13    32 1   
    35    14    20 2   
    36    14    42 1   
    37    15    35 1   
    38    16    18 1   
    39    17    36 1   
    40    18    37 1   
    41    18    38 1   
    42    19    39 1   
    43    21    42 1   
    44    33    42 1   
    45    34    42 1   
@<TRIPOS>SUBSTRUCTURE
     1 GH1         1 TEMP              0 ****  ****    0 ROOT
