@<TRIPOS>MOLECULE
GH1
   43    45     1     0     0
SMALL
No Charge or Current Charge


@<TRIPOS>ATOM
      1 C13          0.1660    -1.2690    -0.0660 ca         1 GH1       0.148100
      2 C15          2.0170    -0.0510    -1.0910 ca         1 GH1      -0.060000
      3 C17          2.4350    -2.1530     0.0570 ca         1 GH1      -0.060000
      4 C20          5.2680    -0.5520     0.2440 c5         1 GH1      -0.036700
      5 C21          6.7760    -0.5180    -0.0970 c          1 GH1       0.574000
      6 C24          6.4960     1.7320     0.7030 c          1 GH1       0.593600
      7 C01         -9.5980     0.9010     0.3580 c3         1 GH1       0.147900
      8 C03         -7.1640     0.5320     0.1530 ca         1 GH1       0.133100
      9 C04         -6.9690     1.7260    -0.5720 ca         1 GH1      -0.173000
     10 C05         -5.6800     2.0810    -0.9990 ca         1 GH1      -0.083000
     11 C06         -4.5820     1.2540    -0.7090 ca         1 GH1      -0.119000
     12 C07         -4.7580     0.0510     0.0180 ca         1 GH1      -0.139600
     13 C08         -6.0640    -0.2930     0.4410 ca         1 GH1      -0.090000
     14 C09         -3.5910    -0.8650     0.3470 c          1 GH1       0.578700
     15 C14          0.6470    -0.1580    -0.7940 ca         1 GH1      -0.167500
     16 C16          2.9180    -1.0470    -0.6670 ca         1 GH1      -0.136300
     17 C18          1.0660    -2.2600     0.3540 ca         1 GH1      -0.167500
     18 C19          4.4050    -0.9310    -0.9850 c3         1 GH1      -0.000100
     19 N23          7.2430     0.7210     0.2020 ns         1 GH1      -0.483500
     20 O10         -3.7770    -1.9020     0.9800 o          1 GH1      -0.481100
     21 O12         -1.1660    -1.4280     0.2550 os         1 GH1      -0.316100
     22 O25          6.9150     2.8450     0.9660 o          1 GH1      -0.464000
     23 S26          4.8010     1.1440     0.8840 ss         1 GH1      -0.261600
     24 H1           2.3770     0.8110    -1.6490 ha         1 GH1       0.115000
     25 H2           3.1200    -2.9310     0.3900 ha         1 GH1       0.115000
     26 H3          -9.5150     1.8980     0.8080 h1         1 GH1       0.042700
     27 H4          -9.7770     1.0140    -0.7190 h1         1 GH1       0.042700
     28 H5         -10.4700     0.4010     0.7970 h1         1 GH1       0.042700
     29 H6          -7.7980     2.3860    -0.8120 ha         1 GH1       0.120000
     30 H7          -5.5300     3.0020    -1.5590 ha         1 GH1       0.116000
     31 H8          -3.6000     1.5650    -1.0580 ha         1 GH1       0.113000
     32 H9          -6.2370    -1.2090     1.0020 ha         1 GH1       0.150000
     33 H11         -2.2120    -0.3620    -1.2220 h1         1 GH1       0.056200
     34 H12         -1.9490     0.5200     0.3020 h1         1 GH1       0.056200
     35 H13         -0.0220     0.6270    -1.1330 ha         1 GH1       0.126500
     36 H14          0.6990    -3.1170     0.9140 ha         1 GH1       0.126500
     37 H15          4.5650    -0.1970    -1.7850 hc         1 GH1       0.068200
     38 H16          4.7560    -1.8870    -1.3940 hc         1 GH1       0.068200
     39 H17          8.2210     0.9040     0.0350 hn         1 GH1       0.352500
     40 H19          5.1300    -1.2930     1.0410 h1         1 GH1       0.115700
     41 O22          7.4710    -1.4070    -0.5610 o          1 GH1      -0.486000
     42 C11         -2.1740    -0.4630    -0.1300 c3         1 GH1       0.058600
     43 O02         -8.4070     0.1300     0.6000 os         1 GH1      -0.337100
@<TRIPOS>BOND
     1     1    15 ar  
     2     1    17 ar  
     3     1    21 1   
     4     2    15 ar  
     5     2    16 ar  
     6     2    24 1   
     7     3    16 ar  
     8     3    17 ar  
     9     3    25 1   
    10     4     5 1   
    11     4    18 1   
    12     4    23 1   
    13     4    40 1   
    14     5    19 1   
    15     5    41 2   
    16     6    19 1   
    17     6    22 2   
    18     6    23 1   
    19     7    26 1   
    20     7    27 1   
    21     7    28 1   
    22     7    43 1   
    23     8     9 ar  
    24     8    13 ar  
    25     8    43 1   
    26     9    10 ar  
    27     9    29 1   
    28    10    11 ar  
    29    10    30 1   
    30    11    12 ar  
    31    11    31 1   
    32    12    13 ar  
    33    12    14 1   
    34    13    32 1   
    35    14    20 2   
    36    14    42 1   
    37    15    35 1   
    38    16    18 1   
    39    17    36 1   
    40    18    37 1   
    41    18    38 1   
    42    19    39 1   
    43    21    42 1   
    44    33    42 1   
    45    34    42 1   
@<TRIPOS>SUBSTRUCTURE
     1 GH1         1 TEMP              0 ****  ****    0 ROOT
