@<TRIPOS>MOLECULE
GH2
   43    44     1     0     0
SMALL
bcc


@<TRIPOS>ATOM
      1 C4          -5.6530     0.1820    -0.8040 c3         1 GH2      -0.176700
      2 C5          -4.3830     0.8590    -0.4250 cc         1 GH2       0.432700
      3 C6          -2.2200     1.1550    -0.1120 cd         1 GH2       0.404800
      4 C11          1.8390    -0.1760    -0.2940 ca         1 GH2      -0.148600
      5 C7          -2.6590     2.3590     0.3590 cc         1 GH2      -0.196400
      6 C8          -0.8250     0.7070    -0.1760 ca         1 GH2      -0.092500
      7 C9           0.2330     1.6020    -0.0120 ca         1 GH2      -0.115000
      8 C10          1.5450     1.1680    -0.0720 ca         1 GH2      -0.095000
      9 C12          0.7850    -1.0740    -0.4410 ca         1 GH2      -0.095000
     10 C13         -0.5270    -0.6390    -0.3980 ca         1 GH2      -0.115000
     11 N1          -3.2160     0.3220    -0.5470 nd         1 GH2      -0.631000
     12 N2           4.1840     0.1530    -0.7520 ns         1 GH2      -0.576900
     13 C3          -6.3390    -0.4450     0.3910 c          1 GH2       0.646100
     14 C1          -9.2030    -2.6600     0.3210 c3         1 GH2      -0.098100
     15 O1          -7.3670    -1.1800     0.0080 os         1 GH2      -0.427900
     16 O2          -5.9960    -0.2880     1.5340 o          1 GH2      -0.525000
     17 S1          -4.3590     2.4470     0.2450 ss         1 GH2      -0.125300
     18 O3           3.4830    -1.8640    -0.0350 o          1 GH2      -0.594100
     19 C15          5.5820    -0.2010    -0.8050 c3         1 GH2       0.112000
     20 C16          6.2460    -0.0420     0.5640 c3         1 GH2      -0.178400
     21 C17          7.7100    -0.3810     0.5540 c3         1 GH2       0.666900
     22 F1           8.2610    -0.2540     1.7700 f          1 GH2      -0.238633
     23 F2           7.9400    -1.6430     0.1560 f          1 GH2      -0.238633
     24 F3           8.4130     0.4110    -0.2730 f          1 GH2      -0.238633
     25 H1          -6.3500     0.8800    -1.2780 hc         1 GH2       0.094700
     26 H2          -5.4380    -0.5900    -1.5450 hc         1 GH2       0.094700
     27 H3          -2.0860     3.1760     0.7670 h4         1 GH2       0.181000
     28 H4           0.0400     2.6530     0.1590 ha         1 GH2       0.145000
     29 H5           2.3320     1.8960     0.0780 ha         1 GH2       0.141000
     30 H6           0.9910    -2.1240    -0.6000 ha         1 GH2       0.141000
     31 H7          -1.3290    -1.3520    -0.5280 ha         1 GH2       0.145000
     32 H8           3.9250     1.0730    -1.0660 hn         1 GH2       0.320500
     33 H9          -9.8730    -2.0260    -0.2590 hc         1 GH2       0.048367
     34 H10         -8.7670    -3.4070    -0.3430 hc         1 GH2       0.048367
     35 H11         -9.8010    -3.1840     1.0650 hc         1 GH2       0.048367
     36 H12         -8.5840    -1.1120     1.6890 h1         1 GH2       0.050700
     37 H13         -7.4840    -2.4930     1.6130 h1         1 GH2       0.050700
     38 H14          5.6810    -1.2240    -1.1670 h1         1 GH2       0.067700
     39 H15          6.0530     0.4510    -1.5390 h1         1 GH2       0.067700
     40 H16          6.1340     0.9870     0.9120 hc         1 GH2       0.087200
     41 H17          5.7540    -0.6880     1.2940 hc         1 GH2       0.087200
     42 C14          3.2350    -0.7060    -0.3420 c          1 GH2       0.679700
     43 C2          -8.1390    -1.8510     1.0210 c3         1 GH2       0.145400
@<TRIPOS>BOND
     1     1     2 1   
     2     1    13 1   
     3     1    25 1   
     4     1    26 1   
     5     2    11 2   
     6     2    17 1   
     7     3     5 2   
     8     3     6 1   
     9     3    11 1   
    10     4     8 ar  
    11     4     9 ar  
    12     4    42 1   
    13     5    17 1   
    14     5    27 1   
    15     6     7 ar  
    16     6    10 ar  
    17     7     8 ar  
    18     7    28 1   
    19     8    29 1   
    20     9    10 ar  
    21     9    30 1   
    22    10    31 1   
    23    12    19 1   
    24    12    32 1   
    25    12    42 1   
    26    13    15 1   
    27    13    16 2   
    28    14    33 1   
    29    14    34 1   
    30    14    35 1   
    31    14    43 1   
    32    15    43 1   
    33    18    42 2   
    34    19    20 1   
    35    19    38 1   
    36    19    39 1   
    37    20    21 1   
    38    20    40 1   
    39    20    41 1   
    40    21    22 1   
    41    21    23 1   
    42    21    24 1   
    43    36    43 1   
    44    37    43 1   
@<TRIPOS>SUBSTRUCTURE
     1 GH2         1 TEMP              0 ****  ****    0 ROOT
