@<TRIPOS>MOLECULE
GH2
   43    44     1     0     0
SMALL
No Charge or Current Charge


@<TRIPOS>ATOM
      1 C4          -6.0340     0.7220    -1.0730 c3         1 GH2      -0.176700
      2 C5          -4.7150     1.3190    -0.7150 cc         1 GH2       0.432700
      3 C6          -2.5110     1.4770    -0.4680 cd         1 GH2       0.339500
      4 C11          1.5740     0.0210    -0.7050 ca         1 GH2      -0.148600
      5 C7          -2.8870     2.7190    -0.0000 cc         1 GH2      -0.258000
      6 C8          -1.1150     0.9820    -0.5480 ca         1 GH2      -0.092500
      7 C9          -0.0300     1.7860    -0.1320 ca         1 GH2      -0.097000
      8 C10          1.2930     1.3160    -0.2080 ca         1 GH2      -0.077000
      9 C12          0.4900    -0.7820    -1.1200 ca         1 GH2      -0.077000
     10 C13         -0.8310    -0.3100    -1.0430 ca         1 GH2      -0.097000
     11 N1          -3.5700     0.6770    -0.8810 nd         1 GH2      -0.631000
     12 N2           4.0030     0.3120    -0.3870 ns         1 GH2      -0.509900
     13 C3          -6.7220     0.1650     0.1560 c          1 GH2       0.597100
     14 C1          -7.1150    -3.3820     1.0940 c3         1 GH2      -0.098100
     15 O1          -6.6860    -1.2040     0.1860 os         1 GH2      -0.451100
     16 O2          -7.2460     0.8630     1.0110 o          1 GH2      -0.476000
     17 S1          -4.6110     2.9330    -0.0640 ss         1 GH2       0.019600
     18 O3           3.2240    -1.6450    -1.2290 o          1 GH2      -0.594100
     19 C15          5.4250    -0.0390    -0.3790 c3         1 GH2       0.112000
     20 C16          5.7900    -0.9130     0.8390 c3         1 GH2      -0.178400
     21 C17          7.2820    -1.2960     0.9050 c3         1 GH2       0.303000
     22 F1           7.5280    -2.0600     1.9920 f          1 GH2      -0.117333
     23 F2           7.6530    -2.0000    -0.1890 f          1 GH2      -0.117333
     24 F3           8.0650    -0.1970     0.9830 f          1 GH2      -0.117333
     25 H1          -6.6690     1.4990    -1.5080 hc         1 GH2       0.094700
     26 H2          -5.8780    -0.0800    -1.8020 hc         1 GH2       0.094700
     27 H3          -2.2720     3.5230     0.3760 h4         1 GH2       0.163000
     28 H4          -0.1980     2.7870     0.2560 ha         1 GH2       0.127000
     29 H5           2.0880     1.9770     0.1270 ha         1 GH2       0.123000
     30 H6           0.6670    -1.7830    -1.5070 ha         1 GH2       0.123000
     31 H7          -1.6350    -0.9630    -1.3740 ha         1 GH2       0.127000
     32 H8           3.7340     1.2280    -0.0540 hn         1 GH2       0.320500
     33 H9          -7.5940    -3.7050     0.1620 hc         1 GH2       0.048367
     34 H10         -6.0500    -3.6380     1.0490 hc         1 GH2       0.048367
     35 H11         -7.5680    -3.9380     1.9230 hc         1 GH2       0.048367
     36 H12         -8.3710    -1.6370     1.3590 h1         1 GH2       0.050700
     37 H13         -6.8270    -1.5710     2.2470 h1         1 GH2       0.050700
     38 H14          5.6690    -0.5720    -1.3090 h1         1 GH2       0.067700
     39 H15          6.0140     0.8880    -0.3600 h1         1 GH2       0.067700
     40 H16          5.5220    -0.3780     1.7580 hc         1 GH2       0.087200
     41 H17          5.1920    -1.8310     0.8190 hc         1 GH2       0.087200
     42 C14          2.9870    -0.5230    -0.8020 c          1 GH2       0.612700
     43 C2          -7.3000    -1.8710     1.3030 c3         1 GH2       0.168600
@<TRIPOS>BOND
     1     1     2 1   
     2     1    13 1   
     3     1    25 1   
     4     1    26 1   
     5     2    11 2   
     6     2    17 1   
     7     3     5 2   
     8     3     6 1   
     9     3    11 1   
    10     4     8 ar  
    11     4     9 ar  
    12     4    42 1   
    13     5    17 1   
    14     5    27 1   
    15     6     7 ar  
    16     6    10 ar  
    17     7     8 ar  
    18     7    28 1   
    19     8    29 1   
    20     9    10 ar  
    21     9    30 1   
    22    10    31 1   
    23    12    19 1   
    24    12    32 1   
    25    12    42 1   
    26    13    15 1   
    27    13    16 2   
    28    14    33 1   
    29    14    34 1   
    30    14    35 1   
    31    14    43 1   
    32    15    43 1   
    33    18    42 2   
    34    19    20 1   
    35    19    38 1   
    36    19    39 1   
    37    20    21 1   
    38    20    40 1   
    39    20    41 1   
    40    21    22 1   
    41    21    23 1   
    42    21    24 1   
    43    36    43 1   
    44    37    43 1   
@<TRIPOS>SUBSTRUCTURE
     1 GH2         1 TEMP              0 ****  ****    0 ROOT
