@<TRIPOS>MOLECULE
GH4
   48    51     1     0     0
SMALL
No Charge or Current Charge


@<TRIPOS>ATOM
      1 C2           1.8080    -2.9990    -1.3470 ca         1 GH4      -0.095000
      2 C3           0.7070    -3.4110    -0.5860 ca         1 GH4       0.052100
      3 C5          -0.7360    -4.4950     0.6920 c5         1 GH4       0.371600
      4 C9           0.7110    -0.8130    -1.6100 ca         1 GH4      -0.087300
      5 C10          0.7160     0.6120    -2.1570 c3         1 GH4       0.286100
      6 C11         -4.4700     1.4810    -0.7480 ca         1 GH4      -0.168000
      7 C12         -5.7430     0.9670    -0.4400 ca         1 GH4      -0.072500
      8 C13         -5.9650     0.3270     0.7910 ca         1 GH4      -0.144000
      9 C14         -4.9160     0.1990     1.7170 ca         1 GH4      -0.072500
     10 C21          1.6520     1.6730    -0.0630 ca         1 GH4       0.380900
     11 C28          1.3980     2.1040     1.2650 ca         1 GH4       0.009000
     12 C1           1.8040    -1.6840    -1.8600 ca         1 GH4      -0.103000
     13 O4           0.5420    -4.6360    -0.0260 os         1 GH4      -0.344100
     14 O6          -1.3140    -3.1720     0.4040 os         1 GH4      -0.341100
     15 C7          -0.3480    -2.5790    -0.3420 ca         1 GH4       0.054100
     16 C8          -0.3840    -1.2710    -0.8400 ca         1 GH4      -0.088000
     17 C15         -3.6450     0.7130     1.4100 ca         1 GH4      -0.168000
     18 C16         -3.4140     1.3530     0.1810 ca         1 GH4       0.136100
     19 O17         -2.1450     1.8310    -0.0650 os         1 GH4      -0.342100
     20 C19         -0.2660     2.7960    -1.3000 c3         1 GH4       0.231800
     21 N20          0.6760     1.6540    -1.1000 nh         1 GH4      -0.778300
     22 N22          2.8820     1.2270    -0.4050 nb         1 GH4      -0.239000
     23 N23          6.2020     0.6470     0.9370 n2         1 GH4      -0.710100
     24 C25          3.8440     1.2130     0.5460 ca         1 GH4       0.062700
     25 N26          3.6820     1.6120     1.8310 nb         1 GH4      -0.195000
     26 C27          2.4590     2.0540     2.1840 ca         1 GH4       0.098900
     27 F29          0.1800     2.5270     1.6790 f          1 GH4      -0.160000
     28 H1           2.6400    -3.6730    -1.5340 ha         1 GH4       0.134000
     29 H2          -1.4290    -5.2790     0.3670 h2         1 GH4       0.064700
     30 H3          -0.5520    -4.5790     1.7700 h2         1 GH4       0.064700
     31 H4           1.6080     0.7600    -2.7820 h1         1 GH4       0.056200
     32 H5          -0.1440     0.7150    -2.8310 h1         1 GH4       0.056200
     33 H7          -6.5570     1.0650    -1.1560 ha         1 GH4       0.112500
     34 H8          -6.9500    -0.0700     1.0270 ha         1 GH4       0.115000
     35 H9          -5.0880    -0.2970     2.6700 ha         1 GH4       0.112500
     36 H10          2.6510    -1.3390    -2.4480 ha         1 GH4       0.117000
     37 H11         -1.2320    -0.6260    -0.6300 ha         1 GH4       0.146000
     38 H12         -2.8320     0.6120     2.1250 ha         1 GH4       0.120000
     39 H15         -0.0290     3.2830    -2.2560 h1         1 GH4       0.068200
     40 H16         -0.1060     3.5650    -0.5340 h1         1 GH4       0.068200
     41 H17          5.9030     0.9920     1.8630 hn         1 GH4       0.399400
     42 H19          2.3280     2.3660     3.2190 h4         1 GH4       0.039100
     43 C24          5.1920     0.7070     0.1230 ce         1 GH4       0.366200
     44 C18         -1.7800     2.4450    -1.3170 c3         1 GH4       0.143600
     45 H6          -4.3240     1.9720    -1.7060 ha         1 GH4       0.120000
     46 H13         -1.9860     1.7660    -2.1530 h1         1 GH4       0.043700
     47 H14         -2.3570     3.3660    -1.4750 h1         1 GH4       0.043700
     48 H18          5.2920     0.3860    -0.9160 h4         1 GH4       0.034800
@<TRIPOS>BOND
     1     1     2 ar  
     2     1    12 ar  
     3     1    28 1   
     4     2    13 1   
     5     2    15 ar  
     6     3    13 1   
     7     3    14 1   
     8     3    29 1   
     9     3    30 1   
    10     4     5 1   
    11     4    12 ar  
    12     4    16 ar  
    13     5    21 1   
    14     5    31 1   
    15     5    32 1   
    16     6     7 ar  
    17     6    18 ar  
    18     6    45 1   
    19     7     8 ar  
    20     7    33 1   
    21     8     9 ar  
    22     8    34 1   
    23     9    17 ar  
    24     9    35 1   
    25    10    11 ar  
    26    10    21 1   
    27    10    22 ar  
    28    11    26 ar  
    29    11    27 1   
    30    12    36 1   
    31    14    15 1   
    32    15    16 ar  
    33    16    37 1   
    34    17    18 ar  
    35    17    38 1   
    36    18    19 1   
    37    19    44 1   
    38    20    21 1   
    39    20    39 1   
    40    20    40 1   
    41    20    44 1   
    42    22    24 ar  
    43    23    41 1   
    44    23    43 2   
    45    24    25 ar  
    46    24    43 1   
    47    25    26 ar  
    48    26    42 1   
    49    43    48 1   
    50    44    46 1   
    51    44    47 1   
@<TRIPOS>SUBSTRUCTURE
     1 GH4         1 TEMP              0 ****  ****    0 ROOT
