@<TRIPOS>MOLECULE
GH4
   48    51     1     0     0
SMALL
bcc


@<TRIPOS>ATOM
      1 C2           1.4480    -2.9920    -2.0410 ca         1 GH4      -0.113000
      2 C3           0.5390    -3.3070    -1.0630 ca         1 GH4       0.052100
      3 C5          -0.6080    -4.2630     0.5740 c5         1 GH4       0.325200
      4 C9           0.8270    -0.6520    -1.7470 ca         1 GH4      -0.087300
      5 C10          0.9830     0.7800    -2.2010 c3         1 GH4       0.286100
      6 C11         -4.1950     1.0630    -0.6690 ca         1 GH4      -0.186000
      7 C12         -5.3740     0.4680    -0.2300 ca         1 GH4      -0.090500
      8 C13         -5.5480     0.1230     1.1000 ca         1 GH4      -0.162000
      9 C14         -4.5220     0.3800     2.0050 ca         1 GH4      -0.090500
     10 C21          1.4820     1.8140    -0.0900 ca         1 GH4       0.709200
     11 C28          1.2720     2.5730     1.0830 ca         1 GH4      -0.156700
     12 C1           1.5810    -1.6370    -2.3670 ca         1 GH4      -0.121000
     13 O4           0.2010    -4.5250    -0.5640 os         1 GH4      -0.320900
     14 O6          -1.0300    -2.9090     0.4790 os         1 GH4      -0.317900
     15 C7          -0.2100    -2.3290    -0.4320 ca         1 GH4       0.054100
     16 C8          -0.0980    -0.9990    -0.7510 ca         1 GH4      -0.106000
     17 C15         -3.3430     0.9680     1.5850 ca         1 GH4      -0.186000
     18 C16         -3.1730     1.3140     0.2430 ca         1 GH4       0.136100
     19 O17         -1.9910     1.8800    -0.0770 os         1 GH4      -0.318900
     20 C19         -0.3240     2.7620    -1.5150 c3         1 GH4       0.231800
     21 N20          0.6910     1.7770    -1.1820 nh         1 GH4      -0.778300
     22 N22          2.5640     1.0320    -0.1080 nb         1 GH4      -0.765000
     23 N23          5.4390    -0.0710     1.6860 n2         1 GH4      -0.710100
     24 C25          3.3750     1.0030     0.9330 ca         1 GH4       0.588700
     25 N26          3.2490     1.6960     2.0500 nb         1 GH4      -0.721000
     26 C27          2.1780     2.4850     2.1060 ca         1 GH4       0.427200
     27 F29          0.2070     3.3650     1.2480 f          1 GH4      -0.124900
     28 H1           2.0450    -3.7470    -2.5350 ha         1 GH4       0.152000
     29 H2          -1.4760    -4.9210     0.5700 h2         1 GH4       0.064700
     30 H3          -0.0220    -4.4060     1.4890 h2         1 GH4       0.064700
     31 H4           1.9870     0.9260    -2.6050 h1         1 GH4       0.056200
     32 H5           0.2900     0.9690    -3.0230 h1         1 GH4       0.056200
     33 H7          -6.1610     0.2770    -0.9480 ha         1 GH4       0.130500
     34 H8          -6.4680    -0.3380     1.4320 ha         1 GH4       0.133000
     35 H9          -4.6400     0.1170     3.0480 ha         1 GH4       0.130500
     36 H10          2.3030    -1.3560    -3.1230 ha         1 GH4       0.135000
     37 H11         -0.6860    -0.2540    -0.2330 ha         1 GH4       0.164000
     38 H12         -2.5430     1.1660     2.2890 ha         1 GH4       0.138000
     39 H15         -0.1620     3.0880    -2.5450 h1         1 GH4       0.068200
     40 H16         -0.2160     3.6510    -0.9030 h1         1 GH4       0.068200
     41 H17          5.2460     0.5190     2.4970 hn         1 GH4       0.399400
     42 H19          2.0200     3.0660     3.0090 h4         1 GH4       0.039100
     43 C24          4.5420     0.0920     0.8130 ce         1 GH4       0.366200
     44 C18         -1.7350     2.2220    -1.4220 c3         1 GH4       0.120400
     45 H6          -4.0960     1.3210    -1.7150 ha         1 GH4       0.138000
     46 H13         -1.8520     1.3500    -2.0770 h1         1 GH4       0.043700
     47 H14         -2.4290     2.9930    -1.7750 h1         1 GH4       0.043700
     48 H18          4.5940    -0.4670    -0.1200 h4         1 GH4       0.034800
@<TRIPOS>BOND
     1     1     2 ar  
     2     1    12 ar  
     3     1    28 1   
     4     2    13 1   
     5     2    15 ar  
     6     3    13 1   
     7     3    14 1   
     8     3    29 1   
     9     3    30 1   
    10     4     5 1   
    11     4    12 ar  
    12     4    16 ar  
    13     5    21 1   
    14     5    31 1   
    15     5    32 1   
    16     6     7 ar  
    17     6    18 ar  
    18     6    45 1   
    19     7     8 ar  
    20     7    33 1   
    21     8     9 ar  
    22     8    34 1   
    23     9    17 ar  
    24     9    35 1   
    25    10    11 ar  
    26    10    21 1   
    27    10    22 ar  
    28    11    26 ar  
    29    11    27 1   
    30    12    36 1   
    31    14    15 1   
    32    15    16 ar  
    33    16    37 1   
    34    17    18 ar  
    35    17    38 1   
    36    18    19 1   
    37    19    44 1   
    38    20    21 1   
    39    20    39 1   
    40    20    40 1   
    41    20    44 1   
    42    22    24 ar  
    43    23    41 1   
    44    23    43 2   
    45    24    25 ar  
    46    24    43 1   
    47    25    26 ar  
    48    26    42 1   
    49    43    48 1   
    50    44    46 1   
    51    44    47 1   
@<TRIPOS>SUBSTRUCTURE
     1 GH4         1 TEMP              0 ****  ****    0 ROOT
