@<TRIPOS>MOLECULE
GH5
   43    45     1     0     0
SMALL
No Charge or Current Charge


@<TRIPOS>ATOM
      1 C4          -3.2240     1.1860    -0.3620 c          1 GH5       0.611100
      2 C14          7.6990    -1.4230    -0.7040 ca         1 GH5      -0.122000
      3 C5          -1.4800     0.6540     1.4520 c6         1 GH5       0.096000
      4 C6          -0.1760    -0.0430     0.9980 c6         1 GH5      -0.097400
      5 C11          4.0770    -0.3320    -0.3030 cc         1 GH5       0.618500
      6 C7           0.8650     0.9960     0.4890 c6         1 GH5      -0.097000
      7 C8           0.2310     1.9000    -0.6070 c6         1 GH5      -0.097400
      8 C9          -1.0880     2.5380    -0.1090 c6         1 GH5       0.096000
      9 C10          2.1230     0.3160    -0.0150 cd         1 GH5       0.487300
     10 C12          5.5310    -0.4570    -0.0850 ca         1 GH5      -0.148500
     11 C13          6.3140    -1.3020    -0.9090 ca         1 GH5      -0.067000
     12 N1          -2.0360     1.4870     0.3490 n          1 GH5      -0.411800
     13 N2           3.4280    -0.9830    -1.2550 nd         1 GH5      -0.375300
     14 C3          -4.1510     0.0720     0.1660 c3         1 GH5      -0.157400
     15 N3           3.3250     0.4830     0.4920 nc         1 GH5      -0.718000
     16 C1          -6.3860    -1.2550    -0.0550 c3         1 GH5       0.295000
     17 F2          -7.5160    -1.3650    -0.7870 f          1 GH5      -0.119000
     18 F3          -6.7430    -1.0020     1.2250 f          1 GH5      -0.119000
     19 C2          -5.4840    -0.1330    -0.6140 c3         1 GH5      -0.137400
     20 O1          -3.5240     1.8180    -1.3680 o          1 GH5      -0.599100
     21 O2           2.0990    -0.5490    -1.0680 os         1 GH5      -0.087700
     22 C15          8.3270    -0.7050     0.3250 ca         1 GH5      -0.087000
     23 C16          7.5670     0.1370     1.1500 ca         1 GH5      -0.122000
     24 C17          6.1810     0.2620     0.9490 ca         1 GH5      -0.067000
     25 H2          -2.1930    -0.1020     1.8040 h1         1 GH5       0.061450
     26 H3          -1.2630     1.3050     2.3110 h1         1 GH5       0.061450
     27 H4           0.2440    -0.6210     1.8330 hc         1 GH5       0.065200
     28 H5          -0.4100    -0.7650     0.2030 hc         1 GH5       0.065200
     29 H6           1.1410     1.6390     1.3370 hc         1 GH5       0.083700
     30 H7           0.9360     2.6890    -0.9020 hc         1 GH5       0.065200
     31 H8           0.0250     1.3100    -1.5120 hc         1 GH5       0.065200
     32 H9          -0.8730     3.2160     0.7300 h1         1 GH5       0.061450
     33 H10         -1.5270     3.1490    -0.9100 h1         1 GH5       0.061450
     34 H11          5.8540    -1.8710    -1.7150 ha         1 GH5       0.132000
     35 H12         -3.5650    -0.8540     0.2040 hc         1 GH5       0.073200
     36 H13         -4.3300     0.2630     1.2300 hc         1 GH5       0.073200
     37 H14         -6.0520     0.8050    -0.6100 hc         1 GH5       0.095200
     38 H15         -5.2580    -0.3580    -1.6640 hc         1 GH5       0.095200
     39 H16          9.4000    -0.8000     0.4820 ha         1 GH5       0.115000
     40 H17          8.0510     0.6950     1.9490 ha         1 GH5       0.117500
     41 H18          5.6170     0.9220     1.6050 ha         1 GH5       0.132000
     42 H1           8.2870    -2.0770    -1.3460 ha         1 GH5       0.117500
     43 F1          -5.7530    -2.4500    -0.0860 f          1 GH5      -0.119000
@<TRIPOS>BOND
     1     1    12 1   
     2     1    14 1   
     3     1    20 2   
     4     2    11 ar  
     5     2    22 ar  
     6     2    42 1   
     7     3     4 1   
     8     3    12 1   
     9     3    25 1   
    10     3    26 1   
    11     4     6 1   
    12     4    27 1   
    13     4    28 1   
    14     5    10 1   
    15     5    13 2   
    16     5    15 1   
    17     6     7 1   
    18     6     9 1   
    19     6    29 1   
    20     7     8 1   
    21     7    30 1   
    22     7    31 1   
    23     8    12 1   
    24     8    32 1   
    25     8    33 1   
    26     9    15 2   
    27     9    21 1   
    28    10    11 ar  
    29    10    24 ar  
    30    11    34 1   
    31    13    21 1   
    32    14    19 1   
    33    14    35 1   
    34    14    36 1   
    35    16    17 1   
    36    16    18 1   
    37    16    19 1   
    38    16    43 1   
    39    19    37 1   
    40    19    38 1   
    41    22    23 ar  
    42    22    39 1   
    43    23    24 ar  
    44    23    40 1   
    45    24    41 1   
@<TRIPOS>SUBSTRUCTURE
     1 GH5         1 TEMP              0 ****  ****    0 ROOT
