@<TRIPOS>MOLECULE
GH5
   43    45     1     0     0
SMALL
bcc


@<TRIPOS>ATOM
      1 C4          -3.1800     1.2150    -0.2930 c          1 GH5       0.678100
      2 C14          7.5140    -1.5440    -0.6810 ca         1 GH5      -0.140000
      3 C5          -1.4710     0.7020     1.4460 c6         1 GH5       0.096000
      4 C6          -0.1850     0.0190     0.9990 c6         1 GH5      -0.097400
      5 C11          4.0140    -0.2580    -0.2660 cc         1 GH5       0.618500
      6 C7           0.8110     1.0670     0.4820 c6         1 GH5      -0.097000
      7 C8           0.1660     1.9230    -0.6140 c6         1 GH5      -0.097400
      8 C9          -1.1350     2.5300    -0.1050 c6         1 GH5       0.096000
      9 C10          2.0760     0.4340     0.0320 cd         1 GH5       0.531700
     10 C12          5.4510    -0.4540    -0.0810 ca         1 GH5      -0.148500
     11 C13          6.1540    -1.3640    -0.8720 ca         1 GH5      -0.085000
     12 N1          -2.0350     1.4920     0.3670 n          1 GH5      -0.478800
     13 N2           3.3250    -0.8560    -1.1920 nd         1 GH5      -0.375300
     14 C3          -4.0030     0.0450     0.2180 c3         1 GH5      -0.157400
     15 N3           3.2610     0.5660     0.5230 nc         1 GH5      -0.718000
     16 C1          -6.0890    -1.3120    -0.1400 c3         1 GH5       0.658900
     17 F2          -7.1990    -1.4630    -0.8790 f          1 GH5      -0.240300
     18 F3          -6.4930    -1.1850     1.1350 f          1 GH5      -0.240300
     19 C2          -5.2670    -0.1440    -0.6080 c3         1 GH5      -0.137400
     20 O1          -3.5550     1.8720    -1.2540 o          1 GH5      -0.599100
     21 O2           2.0500    -0.4040    -0.9980 os         1 GH5      -0.132100
     22 C15          8.1840    -0.8190     0.2980 ca         1 GH5      -0.105000
     23 C16          7.4880     0.0880     1.0850 ca         1 GH5      -0.140000
     24 C17          6.1260     0.2710     0.8990 ca         1 GH5      -0.085000
     25 H2          -2.1780    -0.0390     1.8080 h1         1 GH5       0.061450
     26 H3          -1.2600     1.3690     2.2870 h1         1 GH5       0.061450
     27 H4           0.2430    -0.5250     1.8430 hc         1 GH5       0.065200
     28 H5          -0.4110    -0.7100     0.2170 hc         1 GH5       0.065200
     29 H6           1.0890     1.7180     1.3160 hc         1 GH5       0.083700
     30 H7           0.8420     2.7240    -0.9180 hc         1 GH5       0.065200
     31 H8          -0.0440     1.3160    -1.4990 hc         1 GH5       0.065200
     32 H9          -0.9300     3.2160     0.7230 h1         1 GH5       0.061450
     33 H10         -1.6180     3.1040    -0.8900 h1         1 GH5       0.061450
     34 H11          5.6390    -1.9330    -1.6350 ha         1 GH5       0.150000
     35 H12         -3.3920    -0.8610     0.1890 hc         1 GH5       0.073200
     36 H13         -4.2550     0.2140     1.2680 hc         1 GH5       0.073200
     37 H14         -5.8950     0.7470    -0.5620 hc         1 GH5       0.095200
     38 H15         -5.0210    -0.3090    -1.6570 hc         1 GH5       0.095200
     39 H16          9.2460    -0.9630     0.4460 ha         1 GH5       0.133000
     40 H17          8.0060     0.6530     1.8490 ha         1 GH5       0.135500
     41 H18          5.5870     0.9780     1.5160 ha         1 GH5       0.150000
     42 H1           8.0530    -2.2530    -1.2950 ha         1 GH5       0.135500
     43 F1          -5.4200    -2.4750    -0.2100 f          1 GH5      -0.240300
@<TRIPOS>BOND
     1     1    12 1   
     2     1    14 1   
     3     1    20 2   
     4     2    11 ar  
     5     2    22 ar  
     6     2    42 1   
     7     3     4 1   
     8     3    12 1   
     9     3    25 1   
    10     3    26 1   
    11     4     6 1   
    12     4    27 1   
    13     4    28 1   
    14     5    10 1   
    15     5    13 2   
    16     5    15 1   
    17     6     7 1   
    18     6     9 1   
    19     6    29 1   
    20     7     8 1   
    21     7    30 1   
    22     7    31 1   
    23     8    12 1   
    24     8    32 1   
    25     8    33 1   
    26     9    15 2   
    27     9    21 1   
    28    10    11 ar  
    29    10    24 ar  
    30    11    34 1   
    31    13    21 1   
    32    14    19 1   
    33    14    35 1   
    34    14    36 1   
    35    16    17 1   
    36    16    18 1   
    37    16    19 1   
    38    16    43 1   
    39    19    37 1   
    40    19    38 1   
    41    22    23 ar  
    42    22    39 1   
    43    23    24 ar  
    44    23    40 1   
    45    24    41 1   
@<TRIPOS>SUBSTRUCTURE
     1 GH5         1 TEMP              0 ****  ****    0 ROOT
