@<TRIPOS>MOLECULE
GH7
   19    20     1     0     0
SMALL
No Charge or Current Charge


@<TRIPOS>ATOM
      1 N41          0.4750     1.5500     0.5550 n7         1 GH7      -0.571900
      2 C01         -1.4260     0.6950    -0.4660 c5         1 GH7       0.331300
      3 O02         -2.6920     0.1230    -0.0670 os         1 GH7      -0.461000
      4 C03         -2.5900    -1.3070    -0.2130 c5         1 GH7       0.156600
      5 C04         -1.1640    -1.6000     0.2990 c5         1 GH7      -0.105400
      6 C05         -0.3960    -0.4650    -0.4460 c5         1 GH7      -0.107700
      7 C06          0.7510     0.0790     0.4710 c5         1 GH7      -0.026500
      8 C07          2.1520    -0.2930    -0.1440 c          1 GH7       0.713000
      9 O40          2.5570     0.3280    -1.1190 o          1 GH7      -0.719500
     10 O42         -0.9800     1.6090     0.5640 os         1 GH7      -0.293300
     11 H1           0.7650     2.0170    -0.3200 hn         1 GH7       0.422000
     12 H011        -1.4820     1.1850    -1.4470 h2         1 GH7       0.066700
     13 H031        -3.3720    -1.8050     0.3750 h1         1 GH7       0.028700
     14 H032        -2.7090    -1.5710    -1.2730 h1         1 GH7       0.028700
     15 H042        -1.1290    -1.5140     1.3910 hc         1 GH7       0.053200
     16 H041        -0.8130    -2.6020     0.0280 hc         1 GH7       0.053200
     17 H051        -0.0780    -0.7400    -1.4580 hc         1 GH7       0.081700
     18 H2           0.7060    -0.3540     1.4790 h1         1 GH7       0.070700
     19 OXT          2.8360    -1.1420     0.4100 o          1 GH7      -0.719500
@<TRIPOS>BOND
     1     1     7 1   
     2     1    10 1   
     3     1    11 1   
     4     2     3 1   
     5     2     6 1   
     6     2    10 1   
     7     2    12 1   
     8     3     4 1   
     9     4     5 1   
    10     4    13 1   
    11     4    14 1   
    12     5     6 1   
    13     5    15 1   
    14     5    16 1   
    15     6     7 1   
    16     6    17 1   
    17     7     8 1   
    18     7    18 1   
    19     8     9 1   
    20     8    19 1   
@<TRIPOS>SUBSTRUCTURE
     1 GH7         1 TEMP              0 ****  ****    0 ROOT
