@<TRIPOS>MOLECULE
GH7
   19    20     1     0     0
SMALL
bcc


@<TRIPOS>ATOM
      1 N41          0.3260     1.3900     0.7290 n7         1 GH7      -0.516700
      2 C01         -1.2670     0.5480    -0.6490 c5         1 GH7       0.284900
      3 O02         -2.5740     0.1040    -0.6420 os         1 GH7      -0.414600
      4 C03         -2.6380    -1.2540    -0.1940 c5         1 GH7       0.133400
      5 C04         -1.2720    -1.5720     0.3940 c5         1 GH7      -0.105400
      6 C05         -0.3390    -0.6250    -0.3660 c5         1 GH7      -0.107700
      7 C06          0.7830     0.0190     0.4640 c5         1 GH7      -0.026500
      8 C07          2.1410    -0.0050    -0.2690 c          1 GH7       0.923600
      9 O40          2.5500     1.0720    -0.7460 o          1 GH7      -0.824800
     10 O42         -1.0560     1.4160     0.4560 os         1 GH7      -0.270100
     11 H1           0.7790     1.9750     0.0260 hn         1 GH7       0.366800
     12 H011        -1.0630     1.0790    -1.5890 h2         1 GH7       0.066700
     13 H031        -3.4470    -1.3550     0.5310 h1         1 GH7       0.028700
     14 H032        -2.8670    -1.8970    -1.0490 h1         1 GH7       0.028700
     15 H042        -1.2490    -1.3560     1.4640 hc         1 GH7       0.053200
     16 H041        -1.0060    -2.6210     0.2650 hc         1 GH7       0.053200
     17 H051         0.0220    -1.0900    -1.2840 hc         1 GH7       0.081700
     18 H2           0.8960    -0.5180     1.4110 h1         1 GH7       0.070700
     19 OXT          2.6920    -1.1170    -0.3330 o          1 GH7      -0.824800
@<TRIPOS>BOND
     1     1     7 1   
     2     1    10 1   
     3     1    11 1   
     4     2     3 1   
     5     2     6 1   
     6     2    10 1   
     7     2    12 1   
     8     3     4 1   
     9     4     5 1   
    10     4    13 1   
    11     4    14 1   
    12     5     6 1   
    13     5    15 1   
    14     5    16 1   
    15     6     7 1   
    16     6    17 1   
    17     7     8 1   
    18     7    18 1   
    19     8     9 1   
    20     8    19 1   
@<TRIPOS>SUBSTRUCTURE
     1 GH7         1 TEMP              0 ****  ****    0 ROOT
