@<TRIPOS>MOLECULE
GH8
   67    71     1     0     0
SMALL
No Charge or Current Charge


@<TRIPOS>ATOM
      1 N1          -7.4470    -1.1910    -0.5810 n3         1 GH8      -0.720600
      2 C4          -7.5510    -0.2810     0.6030 c6         1 GH8       0.168300
      3 C5          -6.6080     0.9410     0.4920 c6         1 GH8      -0.087400
      4 C6          -5.1280     0.5310     0.2990 c6         1 GH8       0.201000
      5 C7          -5.0610    -0.4270    -0.9220 c6         1 GH8      -0.087400
      6 C8          -6.0290    -1.6250    -0.7830 c6         1 GH8       0.168300
      7 C10         -3.0590    -0.3570     1.4420 c          1 GH8       0.596700
      8 C13         -0.1560     1.7300     0.0490 cp         1 GH8      -0.096000
      9 C15         -2.2960     2.7360    -0.6110 ca         1 GH8      -0.165000
     10 C17          1.3410     1.7370     0.0500 cp         1 GH8      -0.003000
     11 C20          4.2060     1.7510     0.0510 ca         1 GH8      -0.151600
     12 C21          3.4860     0.5330    -0.0090 ca         1 GH8      -0.070000
     13 C22          2.0800     0.5320    -0.0080 ca         1 GH8      -0.114500
     14 C24          7.8300     0.4410    -0.0100 c3         1 GH8       0.148300
     15 C26          8.4050    -1.6550    -1.3260 ca         1 GH8      -0.095000
     16 C28          8.9430    -3.7490    -0.2050 ca         1 GH8      -0.102000
     17 C1          -9.8920    -1.8760    -0.3680 c3         1 GH8      -0.092100
     18 C2          -8.4200    -2.3330    -0.5420 c3         1 GH8       0.187500
     19 C3          -8.3330    -3.2540    -1.7870 c3         1 GH8      -0.092100
     20 C9          -4.5520    -0.1110     1.5860 c6         1 GH8      -0.210400
     21 O1          -2.5350    -1.3830     1.8550 o          1 GH8      -0.521100
     22 C11         -2.2930     0.7010     0.7170 ca         1 GH8      -0.272600
     23 C12         -0.8820     0.7080     0.7130 ca         1 GH8      -0.003000
     24 C14         -0.8920     2.7470    -0.6090 ca         1 GH8      -0.034000
     25 C16         -2.9960     1.7110     0.0380 ca         1 GH8       0.198100
     26 O2          -4.3740     1.7270     0.0040 os         1 GH8      -0.343100
     27 C18          2.0690     2.9490     0.1080 ca         1 GH8      -0.114500
     28 C19          3.4740     2.9580     0.1090 ca         1 GH8      -0.070000
     29 C23          5.7210     1.7980     0.0530 c          1 GH8       0.612700
     30 O3           6.3430     2.8510     0.1020 o          1 GH8      -0.605100
     31 N2           6.3790     0.5900    -0.0030 ns         1 GH8      -0.502900
     32 C25          8.2250    -1.0260    -0.0780 ca         1 GH8      -0.115300
     33 C27          8.7630    -3.0130    -1.3890 ca         1 GH8      -0.113000
     34 C29          8.7620    -3.1270     1.0410 ca         1 GH8      -0.113000
     35 C30          8.4030    -1.7690     1.1050 ca         1 GH8      -0.095000
     36 H2          -8.5690     0.1180     0.7020 h1         1 GH8       0.035950
     37 H3          -7.3340    -0.8330     1.5300 h1         1 GH8       0.035950
     38 H4          -6.9300     1.5590    -0.3560 hc         1 GH8       0.064200
     39 H5          -6.7140     1.5690     1.3860 hc         1 GH8       0.064200
     40 H6          -5.3200     0.1290    -1.8340 hc         1 GH8       0.064200
     41 H7          -4.0410    -0.8000    -1.0770 hc         1 GH8       0.064200
     42 H8          -5.7030    -2.2680     0.0480 h1         1 GH8       0.035950
     43 H9          -5.9270    -2.2180    -1.7020 h1         1 GH8       0.035950
     44 H10         -2.8460     3.5180    -1.1280 ha         1 GH8       0.133000
     45 H11          3.9980    -0.4240    -0.0590 ha         1 GH8       0.125500
     46 H12          1.5590    -0.4200    -0.0690 ha         1 GH8       0.119000
     47 H13          8.2420     0.9790    -0.8740 h1         1 GH8       0.060700
     48 H14          8.2420     0.8960     0.9010 h1         1 GH8       0.060700
     49 H16          9.2200    -4.8000    -0.2550 ha         1 GH8       0.114000
     50 H17        -10.1630    -1.1350    -1.1290 hc         1 GH8       0.039033
     51 H18        -10.5790    -2.7260    -0.4610 hc         1 GH8       0.039033
     52 H19        -10.0650    -1.4430     0.6240 hc         1 GH8       0.039033
     53 H20         -8.1830    -2.9610     0.3280 h1         1 GH8       0.018700
     54 H21         -7.3890    -3.8080    -1.8130 hc         1 GH8       0.039033
     55 H22         -9.1340    -4.0020    -1.7770 hc         1 GH8       0.039033
     56 H23         -8.4250    -2.6700    -2.7110 hc         1 GH8       0.039033
     57 H24         -4.6550     0.6430     2.3760 hc         1 GH8       0.083700
     58 H25         -5.0600    -1.0270     1.9100 hc         1 GH8       0.083700
     59 H26         -0.3410    -0.0700     1.2470 ha         1 GH8       0.134000
     60 H27         -0.3710     3.5430    -1.1360 ha         1 GH8       0.119000
     61 H28          1.5400     3.8970     0.1670 ha         1 GH8       0.119000
     62 H29          3.9930     3.9130     0.1580 ha         1 GH8       0.125500
     63 H30          5.8130    -0.2460    -0.0410 hn         1 GH8       0.317500
     64 H31          8.9020    -3.4940    -2.3550 ha         1 GH8       0.114500
     65 H32          8.8990    -3.6960     1.9580 ha         1 GH8       0.114500
     66 H33          8.2630    -1.2950     2.0750 ha         1 GH8       0.115500
     67 H15          8.2650    -1.0930    -2.2470 ha         1 GH8       0.115500
@<TRIPOS>BOND
     1     1     2 1   
     2     1     6 1   
     3     1    18 1   
     4     2     3 1   
     5     2    36 1   
     6     2    37 1   
     7     3     4 1   
     8     3    38 1   
     9     3    39 1   
    10     4     5 1   
    11     4    20 1   
    12     4    26 1   
    13     5     6 1   
    14     5    40 1   
    15     5    41 1   
    16     6    42 1   
    17     6    43 1   
    18     7    20 1   
    19     7    21 2   
    20     7    22 1   
    21     8    10 1   
    22     8    23 ar  
    23     8    24 ar  
    24     9    24 ar  
    25     9    25 ar  
    26     9    44 1   
    27    10    13 ar  
    28    10    27 ar  
    29    11    12 ar  
    30    11    28 ar  
    31    11    29 1   
    32    12    13 ar  
    33    12    45 1   
    34    13    46 1   
    35    14    31 1   
    36    14    32 1   
    37    14    47 1   
    38    14    48 1   
    39    15    32 ar  
    40    15    33 ar  
    41    15    67 1   
    42    16    33 ar  
    43    16    34 ar  
    44    16    49 1   
    45    17    18 1   
    46    17    50 1   
    47    17    51 1   
    48    17    52 1   
    49    18    19 1   
    50    18    53 1   
    51    19    54 1   
    52    19    55 1   
    53    19    56 1   
    54    20    57 1   
    55    20    58 1   
    56    22    23 ar  
    57    22    25 ar  
    58    23    59 1   
    59    24    60 1   
    60    25    26 1   
    61    27    28 ar  
    62    27    61 1   
    63    28    62 1   
    64    29    30 2   
    65    29    31 1   
    66    31    63 1   
    67    32    35 ar  
    68    33    64 1   
    69    34    35 ar  
    70    34    65 1   
    71    35    66 1   
@<TRIPOS>SUBSTRUCTURE
     1 GH8         1 TEMP              0 ****  ****    0 ROOT
