@<TRIPOS>MOLECULE
GH8
   67    71     1     0     0
SMALL
abcg2


@<TRIPOS>ATOM
      1 N1          -7.3960    -1.1360    -0.5660 n3         1 GH8      -0.720600
      2 C4          -7.4800    -0.2300     0.5680 c6         1 GH8       0.168300
      3 C5          -6.4900     0.9190     0.4520 c6         1 GH8      -0.087400
      4 C6          -5.0580     0.4370     0.3050 c6         1 GH8       0.201000
      5 C7          -5.0110    -0.5700    -0.8420 c6         1 GH8      -0.087400
      6 C8          -6.0490    -1.6720    -0.6750 c6         1 GH8       0.168300
      7 C10         -3.0270    -0.4050     1.5270 c          1 GH8       0.596700
      8 C13         -0.1510     1.5310     0.0360 cp         1 GH8      -0.096000
      9 C15         -2.2470     2.5170    -0.7010 ca         1 GH8      -0.165000
     10 C17          1.3220     1.5520     0.0710 cp         1 GH8      -0.003000
     11 C20          4.1310     1.6010     0.1780 ca         1 GH8      -0.151600
     12 C21          3.4420     0.3900     0.1390 ca         1 GH8      -0.070000
     13 C22          2.0590     0.3670     0.0860 ca         1 GH8      -0.114500
     14 C24          7.7500     0.5600    -0.2180 c3         1 GH8       0.148300
     15 C26          8.5760    -1.5150    -1.3710 ca         1 GH8      -0.095000
     16 C28          8.9370    -3.5680    -0.1710 ca         1 GH8      -0.102000
     17 C1          -9.8250    -1.5870    -0.4720 c3         1 GH8      -0.092100
     18 C2          -8.4190    -2.1850    -0.5110 c3         1 GH8       0.187500
     19 C3          -8.3280    -3.1270    -1.7110 c3         1 GH8      -0.092100
     20 C9          -4.5070    -0.1380     1.6060 c6         1 GH8      -0.210400
     21 O1          -2.4940    -1.3170     2.1240 o          1 GH8      -0.521100
     22 C11         -2.2710     0.5640     0.7190 ca         1 GH8      -0.272600
     23 C12         -0.8750     0.5680     0.7190 ca         1 GH8      -0.003000
     24 C14         -0.8690     2.5080    -0.6710 ca         1 GH8      -0.034000
     25 C16         -2.9620     1.5430    -0.0030 ca         1 GH8       0.198100
     26 O2          -4.2960     1.6070    -0.0490 os         1 GH8      -0.343100
     27 C18          2.0190     2.7620     0.1110 ca         1 GH8      -0.114500
     28 C19          3.4000     2.7860     0.1740 ca         1 GH8      -0.070000
     29 C23          5.6190     1.6870     0.2720 c          1 GH8       0.612700
     30 O3           6.1660     2.6580     0.7810 o          1 GH8      -0.605100
     31 N2           6.3020     0.6450    -0.2320 ns         1 GH8      -0.502900
     32 C25          8.1800    -0.8810    -0.1980 ca         1 GH8      -0.115300
     33 C27          8.9540    -2.8520    -1.3600 ca         1 GH8      -0.113000
     34 C29          8.5370    -2.9430     1.0050 ca         1 GH8      -0.113000
     35 C30          8.1570    -1.6090     0.9890 ca         1 GH8      -0.095000
     36 H2          -8.4730     0.2140     0.6110 h1         1 GH8       0.035950
     37 H3          -7.3430    -0.7640     1.5260 h1         1 GH8       0.035950
     38 H4          -6.7470     1.5160    -0.4270 hc         1 GH8       0.064200
     39 H5          -6.5860     1.5680     1.3260 hc         1 GH8       0.064200
     40 H6          -5.2080    -0.0420    -1.7780 hc         1 GH8       0.064200
     41 H7          -4.0250    -1.0330    -0.9390 hc         1 GH8       0.064200
     42 H8          -5.7960    -2.3120     0.1890 h1         1 GH8       0.035950
     43 H9          -5.9770    -2.3100    -1.5530 h1         1 GH8       0.035950
     44 H10         -2.7790     3.2710    -1.2660 ha         1 GH8       0.133000
     45 H11          3.9730    -0.5530     0.1730 ha         1 GH8       0.125500
     46 H12          1.5500    -0.5870     0.0410 ha         1 GH8       0.119000
     47 H13          8.1740     1.0660    -1.0900 h1         1 GH8       0.060700
     48 H14          8.1130     1.0820     0.6670 h1         1 GH8       0.060700
     49 H16          9.2310    -4.6090    -0.1590 ha         1 GH8       0.114000
     50 H17         -9.9720    -0.8970    -1.3050 hc         1 GH8       0.039033
     51 H18        -10.5650    -2.3820    -0.5580 hc         1 GH8       0.039033
     52 H19        -10.0450    -1.0540     0.4520 hc         1 GH8       0.039033
     53 H20         -8.2860    -2.7930     0.4030 h1         1 GH8       0.018700
     54 H21         -7.4300    -3.7430    -1.7080 hc         1 GH8       0.039033
     55 H22         -9.1780    -3.8090    -1.7030 hc         1 GH8       0.039033
     56 H23         -8.3550    -2.5650    -2.6470 hc         1 GH8       0.039033
     57 H24         -4.6580     0.5850     2.4180 hc         1 GH8       0.083700
     58 H25         -5.0340    -1.0480     1.8950 hc         1 GH8       0.083700
     59 H26         -0.3620    -0.1870     1.3030 ha         1 GH8       0.134000
     60 H27         -0.3370     3.2680    -1.2290 ha         1 GH8       0.119000
     61 H28          1.4770     3.6990     0.1190 ha         1 GH8       0.119000
     62 H29          3.9150     3.7360     0.2200 ha         1 GH8       0.125500
     63 H30          5.8110    -0.0420    -0.7800 hn         1 GH8       0.317500
     64 H31          9.2620    -3.3330    -2.2790 ha         1 GH8       0.114500
     65 H32          8.5250    -3.4960     1.9350 ha         1 GH8       0.114500
     66 H33          7.8500    -1.1270     1.9090 ha         1 GH8       0.115500
     67 H15          8.5930    -0.9570    -2.3010 ha         1 GH8       0.115500
@<TRIPOS>BOND
     1     1     2 1   
     2     1     6 1   
     3     1    18 1   
     4     2     3 1   
     5     2    36 1   
     6     2    37 1   
     7     3     4 1   
     8     3    38 1   
     9     3    39 1   
    10     4     5 1   
    11     4    20 1   
    12     4    26 1   
    13     5     6 1   
    14     5    40 1   
    15     5    41 1   
    16     6    42 1   
    17     6    43 1   
    18     7    20 1   
    19     7    21 2   
    20     7    22 1   
    21     8    10 1   
    22     8    23 ar  
    23     8    24 ar  
    24     9    24 ar  
    25     9    25 ar  
    26     9    44 1   
    27    10    13 ar  
    28    10    27 ar  
    29    11    12 ar  
    30    11    28 ar  
    31    11    29 1   
    32    12    13 ar  
    33    12    45 1   
    34    13    46 1   
    35    14    31 1   
    36    14    32 1   
    37    14    47 1   
    38    14    48 1   
    39    15    32 ar  
    40    15    33 ar  
    41    15    67 1   
    42    16    33 ar  
    43    16    34 ar  
    44    16    49 1   
    45    17    18 1   
    46    17    50 1   
    47    17    51 1   
    48    17    52 1   
    49    18    19 1   
    50    18    53 1   
    51    19    54 1   
    52    19    55 1   
    53    19    56 1   
    54    20    57 1   
    55    20    58 1   
    56    22    23 ar  
    57    22    25 ar  
    58    23    59 1   
    59    24    60 1   
    60    25    26 1   
    61    27    28 ar  
    62    27    61 1   
    63    28    62 1   
    64    29    30 2   
    65    29    31 1   
    66    31    63 1   
    67    32    35 ar  
    68    33    64 1   
    69    34    35 ar  
    70    34    65 1   
    71    35    66 1   
@<TRIPOS>SUBSTRUCTURE
     1 GH8         1 TEMP              0 ****  ****    0 ROOT
