@<TRIPOS>MOLECULE
GH9
   27    28     1     0     0
SMALL
bcc


@<TRIPOS>ATOM
      1 C1           5.0090     0.7590    11.7670 c2         1 GH9      -0.109400
      2 C2           6.2970     0.6320    11.4520 c2         1 GH9      -0.223000
      3 C3           3.9790    -0.3350    11.5900 c6         1 GH9      -0.021500
      4 C4           3.4330    -0.8080    12.9460 c6         1 GH9      -0.067400
      5 C5           4.5370    -1.4080    13.8090 c6         1 GH9      -0.059400
      6 C6           5.3590    -2.4450    13.0830 cx         1 GH9       0.082800
      7 C7           6.5760    -2.9360    13.8190 c3         1 GH9      -0.078100
      8 C8           5.3080    -2.5050    11.6200 cx         1 GH9       0.070100
      9 C9           4.4690    -1.5500    10.8020 c6         1 GH9      -0.064400
     10 C            4.4820     2.0460    12.3350 c3         1 GH9      -0.058900
     11 O            4.6010    -3.4500    12.4200 op         1 GH9      -0.398600
     12 H1           6.9900     1.4530    11.5950 ha         1 GH9       0.112000
     13 H2           6.7190    -0.2770    11.0440 ha         1 GH9       0.112000
     14 H3           3.1450     0.1070    11.0330 hc         1 GH9       0.054700
     15 H4           2.9540     0.0130    13.4830 hc         1 GH9       0.048200
     16 H5           2.6510    -1.5500    12.7660 hc         1 GH9       0.048200
     17 H6           5.2100    -0.6180    14.1510 hc         1 GH9       0.051700
     18 H7           4.1120    -1.8560    14.7130 hc         1 GH9       0.051700
     19 H8           6.2980    -3.3800    14.7780 hc         1 GH9       0.046033
     20 H9           7.1200    -3.6840    13.2420 hc         1 GH9       0.046033
     21 H10          7.2550    -2.1080    14.0240 hc         1 GH9       0.046033
     22 H11          6.1710    -2.9280    11.1050 h1         1 GH9       0.080700
     23 H12          5.0330    -1.2340     9.9220 hc         1 GH9       0.055700
     24 H13          3.6010    -2.0940    10.4210 hc         1 GH9       0.055700
     25 H14          5.2410     2.8280    12.3320 hc         1 GH9       0.039033
     26 H15          3.6230     2.4030    11.7620 hc         1 GH9       0.039033
     27 H16          4.1390     1.9220    13.3650 hc         1 GH9       0.039033
@<TRIPOS>BOND
     1     1     2 2   
     2     1     3 1   
     3     1    10 1   
     4     2    12 1   
     5     2    13 1   
     6     3     4 1   
     7     3     9 1   
     8     3    14 1   
     9     4     5 1   
    10     4    15 1   
    11     4    16 1   
    12     5     6 1   
    13     5    17 1   
    14     5    18 1   
    15     6     7 1   
    16     6     8 1   
    17     6    11 1   
    18     7    19 1   
    19     7    20 1   
    20     7    21 1   
    21     8     9 1   
    22     8    11 1   
    23     8    22 1   
    24     9    23 1   
    25     9    24 1   
    26    10    25 1   
    27    10    26 1   
    28    10    27 1   
@<TRIPOS>SUBSTRUCTURE
     1 GH9         1 TEMP              0 ****  ****    0 ROOT
