@<TRIPOS>MOLECULE
GH9
   27    28     1     0     0
SMALL
No Charge or Current Charge


@<TRIPOS>ATOM
      1 C1           4.9690     0.8620    11.8220 c2         1 GH9      -0.109400
      2 C2           6.3050     0.7130    11.7640 c2         1 GH9      -0.323000
      3 C3           3.9650    -0.3000    11.6960 c6         1 GH9      -0.021500
      4 C4           3.4900    -0.8130    13.0830 c6         1 GH9      -0.067400
      5 C5           4.6420    -1.4840    13.8720 c6         1 GH9      -0.059400
      6 C6           5.3820    -2.5750    13.0720 cx         1 GH9       0.106000
      7 C7           6.6130    -3.1570    13.7550 c3         1 GH9      -0.078100
      8 C8           5.3320    -2.5200    11.5640 cx         1 GH9       0.093300
      9 C9           4.4620    -1.4880    10.8180 c6         1 GH9      -0.064400
     10 C            4.3280     2.2250    12.0180 c3         1 GH9      -0.058900
     11 O            4.5810    -3.5060    12.3150 op         1 GH9      -0.445000
     12 H1           6.9750     1.5680    11.8570 ha         1 GH9       0.162000
     13 H2           6.7890    -0.2520    11.6260 ha         1 GH9       0.162000
     14 H3           3.0830     0.1010    11.1760 hc         1 GH9       0.054700
     15 H4           3.0700     0.0140    13.6720 hc         1 GH9       0.048200
     16 H5           2.6710    -1.5330    12.9460 hc         1 GH9       0.048200
     17 H6           5.3680    -0.7170    14.1760 hc         1 GH9       0.051700
     18 H7           4.2520    -1.9190    14.8020 hc         1 GH9       0.051700
     19 H8           6.4010    -3.4060    14.8010 hc         1 GH9       0.046033
     20 H9           6.9540    -4.0710    13.2540 hc         1 GH9       0.046033
     21 H10          7.4400    -2.4370    13.7410 hc         1 GH9       0.046033
     22 H11          6.1640    -2.9290    10.9880 h1         1 GH9       0.080700
     23 H12          5.0100    -1.1090     9.9460 hc         1 GH9       0.055700
     24 H13          3.5910    -2.0190    10.4100 hc         1 GH9       0.055700
     25 H14          5.0790     3.0190    12.1030 hc         1 GH9       0.039033
     26 H15          3.6770     2.4810    11.1740 hc         1 GH9       0.039033
     27 H16          3.7200     2.2520    12.9300 hc         1 GH9       0.039033
@<TRIPOS>BOND
     1     1     2 2   
     2     1     3 1   
     3     1    10 1   
     4     2    12 1   
     5     2    13 1   
     6     3     4 1   
     7     3     9 1   
     8     3    14 1   
     9     4     5 1   
    10     4    15 1   
    11     4    16 1   
    12     5     6 1   
    13     5    17 1   
    14     5    18 1   
    15     6     7 1   
    16     6     8 1   
    17     6    11 1   
    18     7    19 1   
    19     7    20 1   
    20     7    21 1   
    21     8     9 1   
    22     8    11 1   
    23     8    22 1   
    24     9    23 1   
    25     9    24 1   
    26    10    25 1   
    27    10    26 1   
    28    10    27 1   
@<TRIPOS>SUBSTRUCTURE
     1 GH9         1 TEMP              0 ****  ****    0 ROOT
