@<TRIPOS>MOLECULE
GHB
   43    44     1     0     0
SMALL
No Charge or Current Charge


@<TRIPOS>ATOM
      1 C4           6.7180     0.7380    -0.0960 c3         1 GHB      -0.091700
      2 C14         -4.5550    -0.4130    -0.3310 c3         1 GHB       0.111000
      3 C5           5.3840     0.4340    -0.7250 cc         1 GHB       0.216300
      4 C6           4.1530     0.8300    -0.2970 cd         1 GHB      -0.199000
      5 C11         -0.0390     1.7750    -0.8450 ca         1 GHB      -0.059500
      6 C7           1.9590     0.3940    -1.0890 ca         1 GHB       0.029800
      7 C8           1.1540    -0.7570    -1.0120 ca         1 GHB      -0.116000
      8 C9          -0.2390    -0.6480    -0.8510 ca         1 GHB      -0.059500
      9 C10         -0.8560     0.6240    -0.7640 ca         1 GHB      -0.151600
     10 C12          1.3530     1.6610    -1.0060 ca         1 GHB      -0.116000
     11 C13         -2.3530     0.7890    -0.5890 c          1 GHB       0.613700
     12 N1           3.3400     0.2760    -1.2500 na         1 GHB       0.212000
     13 N2           4.0210    -0.4510    -2.1830 nd         1 GHB      -0.192800
     14 C3           8.7540    -0.1190     1.1890 c3         1 GHB      -0.087600
     15 N3           5.2890    -0.3290    -1.8640 nc         1 GHB      -0.352000
     16 C1           6.4240    -0.9070     1.8600 c3         1 GHB      -0.087600
     17 C2           7.3290    -0.4510     0.6910 c3         1 GHB      -0.059700
     18 O1          -2.8810     1.8900    -0.5100 o          1 GHB      -0.592100
     19 N4          -3.1030    -0.3670    -0.5240 ns         1 GHB      -0.505900
     20 C15         -4.9410    -0.2070     1.1490 c3         1 GHB      -0.178400
     21 C16         -6.4590    -0.2640     1.4090 c3         1 GHB       0.304000
     22 F1          -7.1090     0.6950     0.7120 f          1 GHB      -0.116667
     23 F2          -6.9700    -1.4640     1.0520 f          1 GHB      -0.116667
     24 F3          -6.7230    -0.0740     2.7220 f          1 GHB      -0.116667
     25 H1           7.4180     1.0460    -0.8820 hc         1 GHB       0.053200
     26 H2           6.6150     1.6000     0.5750 hc         1 GHB       0.053200
     27 H3          -5.0250     0.3610    -0.9530 h1         1 GHB       0.069200
     28 H4          -4.9220    -1.3890    -0.6770 h1         1 GHB       0.069200
     29 H5           3.8210     1.4150     0.5500 h4         1 GHB       0.171000
     30 H6          -0.4810     2.7680    -0.7840 ha         1 GHB       0.131000
     31 H7           1.6100    -1.7440    -1.0760 ha         1 GHB       0.139000
     32 H8          -0.8190    -1.5650    -0.7940 ha         1 GHB       0.131000
     33 H9           1.9590     2.5620    -1.0710 ha         1 GHB       0.139000
     34 H10          8.7360     0.7230     1.8920 hc         1 GHB       0.032867
     35 H11          9.1980    -0.9830     1.6990 hc         1 GHB       0.032867
     36 H12          9.4070     0.1480     0.3490 hc         1 GHB       0.032867
     37 H13          6.8800    -1.7480     2.3970 hc         1 GHB       0.032867
     38 H14          6.2680    -0.0900     2.5750 hc         1 GHB       0.032867
     39 H15          5.4450    -1.2370     1.4950 hc         1 GHB       0.032867
     40 H16          7.4200    -1.2970    -0.0030 hc         1 GHB       0.061700
     41 H17         -2.6030    -1.2430    -0.6040 hn         1 GHB       0.322500
     42 H18         -4.4480    -0.9730     1.7590 hc         1 GHB       0.087700
     43 H19         -4.5620     0.7640     1.4910 hc         1 GHB       0.087700
@<TRIPOS>BOND
     1     1     3 1   
     2     1    17 1   
     3     1    25 1   
     4     1    26 1   
     5     2    19 1   
     6     2    20 1   
     7     2    27 1   
     8     2    28 1   
     9     3     4 2   
    10     3    15 1   
    11     4    12 1   
    12     4    29 1   
    13     5     9 ar  
    14     5    10 ar  
    15     5    30 1   
    16     6     7 ar  
    17     6    10 ar  
    18     6    12 1   
    19     7     8 ar  
    20     7    31 1   
    21     8     9 ar  
    22     8    32 1   
    23     9    11 1   
    24    10    33 1   
    25    11    18 2   
    26    11    19 1   
    27    12    13 1   
    28    13    15 2   
    29    14    17 1   
    30    14    34 1   
    31    14    35 1   
    32    14    36 1   
    33    16    17 1   
    34    16    37 1   
    35    16    38 1   
    36    16    39 1   
    37    17    40 1   
    38    19    41 1   
    39    20    21 1   
    40    20    42 1   
    41    20    43 1   
    42    21    22 1   
    43    21    23 1   
    44    21    24 1   
@<TRIPOS>SUBSTRUCTURE
     1 GHB         1 TEMP              0 ****  ****    0 ROOT
