@<TRIPOS>MOLECULE
GHB
   43    44     1     0     0
SMALL
bcc


@<TRIPOS>ATOM
      1 C4           6.8040     0.4890    -0.4310 c3         1 GHB      -0.091700
      2 C14         -4.6320     0.0310    -0.5620 c3         1 GHB       0.111000
      3 C5           5.3800     0.1540    -0.6980 cc         1 GHB       0.281600
      4 C6           4.2380     0.7930    -0.3000 cd         1 GHB      -0.231600
      5 C11         -0.0290     1.6590    -0.3060 ca         1 GHB      -0.077500
      6 C7           1.8460     0.2070    -0.6480 ca         1 GHB       0.029800
      7 C8           0.9980    -0.8930    -0.6780 ca         1 GHB      -0.134000
      8 C9          -0.3660    -0.7030    -0.5410 ca         1 GHB      -0.077500
      9 C10         -0.8960     0.5710    -0.3540 ca         1 GHB      -0.151600
     10 C12          1.3340     1.4860    -0.4680 ca         1 GHB      -0.134000
     11 C13         -2.3570     0.8290    -0.1640 c          1 GHB       0.680700
     12 N1           3.2360     0.0250    -0.7810 na         1 GHB       0.161300
     13 N2           3.7240    -1.0200    -1.4380 nd         1 GHB      -0.192800
     14 C3           8.9420    -0.1020     0.7350 c3         1 GHB      -0.087600
     15 N3           5.0050    -0.9500    -1.3920 nc         1 GHB      -0.352000
     16 C1           6.7730    -0.2490     1.9890 c3         1 GHB      -0.087600
     17 C2           7.4530    -0.4070     0.6340 c3         1 GHB      -0.059700
     18 O1          -2.7470     1.8250     0.4290 o          1 GHB      -0.592100
     19 N4          -3.1980    -0.0760    -0.6900 ns         1 GHB      -0.572900
     20 C15         -5.1150    -0.5090     0.7850 c3         1 GHB      -0.178400
     21 C16         -6.6060    -0.4210     0.9540 c3         1 GHB       0.667900
     22 F1          -7.0540     0.8450     0.8990 f          1 GHB      -0.237967
     23 F2          -7.2690    -1.0990     0.0030 f          1 GHB      -0.237967
     24 F3          -7.0050    -0.9190     2.1330 f          1 GHB      -0.237967
     25 H1           7.3710     0.4060    -1.3620 hc         1 GHB       0.053200
     26 H2           6.8760     1.5340    -0.1160 hc         1 GHB       0.053200
     27 H3          -4.9260     1.0730    -0.6910 h1         1 GHB       0.069200
     28 H4          -5.0710    -0.5340    -1.3820 h1         1 GHB       0.069200
     29 H5           4.0760     1.6830     0.2840 h4         1 GHB       0.189000
     30 H6          -0.4190     2.6560    -0.1560 ha         1 GHB       0.149000
     31 H7           1.3950    -1.8910    -0.7960 ha         1 GHB       0.157000
     32 H8          -1.0010    -1.5790    -0.5410 ha         1 GHB       0.149000
     33 H9           1.9870     2.3480    -0.4630 ha         1 GHB       0.157000
     34 H10          9.1100     0.9340     1.0370 hc         1 GHB       0.032867
     35 H11          9.4240    -0.7430     1.4750 hc         1 GHB       0.032867
     36 H12          9.4490    -0.2570    -0.2200 hc         1 GHB       0.032867
     37 H13          7.2390    -0.8940     2.7370 hc         1 GHB       0.032867
     38 H14          6.8520     0.7810     2.3460 hc         1 GHB       0.032867
     39 H15          5.7140    -0.5070     1.9490 hc         1 GHB       0.032867
     40 H16          7.3380    -1.4480     0.3100 hc         1 GHB       0.061700
     41 H17         -2.8390    -0.8480    -1.2270 hn         1 GHB       0.322500
     42 H18         -4.8210    -1.5550     0.8920 hc         1 GHB       0.087700
     43 H19         -4.6480     0.0470     1.6000 hc         1 GHB       0.087700
@<TRIPOS>BOND
     1     1     3 1   
     2     1    17 1   
     3     1    25 1   
     4     1    26 1   
     5     2    19 1   
     6     2    20 1   
     7     2    27 1   
     8     2    28 1   
     9     3     4 2   
    10     3    15 1   
    11     4    12 1   
    12     4    29 1   
    13     5     9 ar  
    14     5    10 ar  
    15     5    30 1   
    16     6     7 ar  
    17     6    10 ar  
    18     6    12 1   
    19     7     8 ar  
    20     7    31 1   
    21     8     9 ar  
    22     8    32 1   
    23     9    11 1   
    24    10    33 1   
    25    11    18 2   
    26    11    19 1   
    27    12    13 1   
    28    13    15 2   
    29    14    17 1   
    30    14    34 1   
    31    14    35 1   
    32    14    36 1   
    33    16    17 1   
    34    16    37 1   
    35    16    38 1   
    36    16    39 1   
    37    17    40 1   
    38    19    41 1   
    39    20    21 1   
    40    20    42 1   
    41    20    43 1   
    42    21    22 1   
    43    21    23 1   
    44    21    24 1   
@<TRIPOS>SUBSTRUCTURE
     1 GHB         1 TEMP              0 ****  ****    0 ROOT
