@<TRIPOS>MOLECULE
GHC
   50    52     1     0     0
SMALL
bcc


@<TRIPOS>ATOM
      1 C4           5.0760    -0.2420     0.2310 cc         1 GHC       0.275300
      2 C5           4.0030     0.0610    -0.5850 cd         1 GHC      -0.251600
      3 C6           3.4910    -0.9840    -1.4260 c          1 GHC       0.752100
      4 N1           4.2000    -2.1750    -1.2730 ns         1 GHC      -0.515400
      5 C3           4.2980     2.1240     0.4650 cc         1 GHC      -0.028400
      6 N3           5.7210    -1.4110     0.3350 nc         1 GHC      -0.703100
      7 C29          3.1240     3.5880     2.1240 c3         1 GHC      -0.090100
      8 S4           5.5500     1.1370     1.1610 ss         1 GHC      -0.106800
      9 C2           5.2560    -2.3650    -0.4350 cd         1 GHC       0.736800
     10 O6           2.5580    -0.9250    -2.2060 o          1 GHC      -0.566500
     11 C1           3.5650     1.4180    -0.4370 cd         1 GHC       0.057900
     12 SAT          2.2400     2.1440    -1.3280 ss         1 GHC      -0.200800
     13 CAZ          0.8230     1.4100    -0.5760 ca         1 GHC       0.024900
     14 CAJ          0.8590     0.7670     0.6580 ca         1 GHC      -0.138000
     15 CAL         -0.3080     0.2660     1.2090 ca         1 GHC      -0.088500
     16 CAI         -0.3900     1.5360    -1.2490 ca         1 GHC      -0.138000
     17 CAK         -1.5500     1.0240    -0.6930 ca         1 GHC      -0.088500
     18 CBA         -1.5240     0.3780     0.5410 ca         1 GHC      -0.105600
     19 CAX         -2.7570    -0.1490     1.2010 c          1 GHC       0.661700
     20 OAE         -2.8420    -0.1970     2.4230 o          1 GHC      -0.635100
     21 NAS         -3.7510    -0.5190     0.3820 ns         1 GHC      -0.488900
     22 CAP         -4.9690    -1.1210     0.8750 c3         1 GHC      -0.049300
     23 CAW         -4.7550    -2.5650     1.3960 c          1 GHC       0.929600
     24 OAG         -5.7060    -3.0300     2.0580 o          1 GHC      -0.847800
     25 OAD         -3.6940    -3.1390     1.0990 o          1 GHC      -0.847800
     26 CBG         -6.0340    -1.0960    -0.2220 c3         1 GHC      -0.056400
     27 CAN         -6.4150     0.3050    -0.6740 c3         1 GHC      -0.200400
     28 CAV         -7.5210     0.3800    -1.7420 c          1 GHC       0.922600
     29 OAF         -7.8720     1.5300    -2.0830 o          1 GHC      -0.865800
     30 OAC         -7.9780    -0.6920    -2.1880 o          1 GHC      -0.865800
     31 H13          5.0620     3.9530     1.2440 hc         1 GHC       0.049700
     32 H13A         3.7290     4.1320     0.1280 hc         1 GHC       0.049700
     33 HN1          3.8880    -2.9480    -1.8470 hn         1 GHC       0.322500
     34 HN2          5.5410    -4.3080    -1.0440 hn         1 GHC       0.448300
     35 HN2A         6.6340    -3.7230     0.1500 hn         1 GHC       0.448300
     36 H29          2.1450     3.2060     1.8330 hc         1 GHC       0.041700
     37 H29A         3.4780     2.9980     2.9700 hc         1 GHC       0.041700
     38 H29B         2.9980     4.6170     2.4610 hc         1 GHC       0.041700
     39 HAJ          1.7900     0.6600     1.1980 ha         1 GHC       0.124500
     40 HAL         -0.2680    -0.2220     2.1740 ha         1 GHC       0.152500
     41 HAI         -0.4350     2.0390    -2.2070 ha         1 GHC       0.124500
     42 HAK         -2.4810     1.1590    -1.2280 ha         1 GHC       0.152500
     43 HNAS        -3.5310    -0.6650    -0.5910 hn         1 GHC       0.299500
     44 HAP         -5.3260    -0.5130     1.7120 h1         1 GHC       0.054700
     45 HBG         -5.6870    -1.6860    -1.0770 hc         1 GHC       0.051200
     46 HBGA        -6.9150    -1.6100     0.1620 hc         1 GHC       0.051200
     47 HAN         -6.7350     0.8940     0.1940 hc         1 GHC       0.008700
     48 HANA        -5.5390     0.8340    -1.0640 hc         1 GHC       0.008700
     49 C13          4.1020     3.5220     0.9520 c3         1 GHC      -0.003100
     50 N2           5.8080    -3.5790    -0.4050 nv         1 GHC      -0.952800
@<TRIPOS>BOND
     1     1     2 2   
     2     1     6 1   
     3     1     8 1   
     4     2     3 1   
     5     2    11 1   
     6     3     4 1   
     7     3    10 2   
     8     4     9 1   
     9     4    33 1   
    10     5     8 1   
    11     5    11 2   
    12     5    49 1   
    13     6     9 2   
    14     7    36 1   
    15     7    37 1   
    16     7    38 1   
    17     7    49 1   
    18     9    50 1   
    19    11    12 1   
    20    12    13 1   
    21    13    14 ar  
    22    13    16 ar  
    23    14    15 ar  
    24    14    39 1   
    25    15    18 ar  
    26    15    40 1   
    27    16    17 ar  
    28    16    41 1   
    29    17    18 ar  
    30    17    42 1   
    31    18    19 1   
    32    19    20 2   
    33    19    21 1   
    34    21    22 1   
    35    21    43 1   
    36    22    23 1   
    37    22    26 1   
    38    22    44 1   
    39    23    24 1   
    40    23    25 1   
    41    26    27 1   
    42    26    45 1   
    43    26    46 1   
    44    27    28 1   
    45    27    47 1   
    46    27    48 1   
    47    28    29 1   
    48    28    30 1   
    49    31    49 1   
    50    32    49 1   
    51    34    50 1   
    52    35    50 1   
@<TRIPOS>SUBSTRUCTURE
     1 GHC         1 TEMP              0 ****  ****    0 ROOT
