@<TRIPOS>MOLECULE
GHC
   50    52     1     0     0
SMALL
No Charge or Current Charge


@<TRIPOS>ATOM
      1 C4           4.7780    -0.1880     0.9020 cc         1 GHC       0.130400
      2 C5           3.9720    -0.0430    -0.2050 cd         1 GHC      -0.251600
      3 C6           3.6210    -1.2180    -1.0340 c          1 GHC       0.609600
      4 N1           4.1650    -2.3640    -0.5580 ns         1 GHC      -0.448400
      5 C3           4.0880     2.2140     0.5270 cc         1 GHC      -0.173300
      6 N3           5.2870    -1.4100     1.3000 nc         1 GHC      -0.703100
      7 C29          2.7020     4.2020     1.3340 c3         1 GHC      -0.090100
      8 S4           5.0680     1.3550     1.7160 ss         1 GHC       0.183000
      9 C2           4.9340    -2.4090     0.5360 cd         1 GHC       0.736800
     10 O6           2.9360    -1.2060    -2.0430 o          1 GHC      -0.491000
     11 C1           3.5730     1.3190    -0.3850 cd         1 GHC      -0.069000
     12 SAT          2.5180     1.9380    -1.6700 ss         1 GHC       0.053000
     13 CAZ          1.0250     1.2080    -0.9650 ca         1 GHC      -0.102000
     14 CAJ          0.7690     1.1640     0.4210 ca         1 GHC      -0.120000
     15 CAL         -0.4160     0.5880     0.9090 ca         1 GHC      -0.070500
     16 CAI          0.0700     0.6770    -1.8470 ca         1 GHC      -0.120000
     17 CAK         -1.1170     0.0990    -1.3640 ca         1 GHC      -0.070500
     18 CBA         -1.3770     0.0450     0.0270 ca         1 GHC      -0.105600
     19 CAX         -2.6460    -0.5690     0.5930 c          1 GHC       0.594700
     20 OAE         -2.8670    -0.6050     1.7980 o          1 GHC      -0.635100
     21 NAS         -3.5380    -1.0950    -0.3230 ns         1 GHC      -0.421900
     22 CAP         -4.8530    -1.7040    -0.0020 c3         1 GHC      -0.049300
     23 CAW         -5.0710    -2.9850    -0.8650 c          1 GHC       0.719000
     24 OAG         -5.3450    -4.0300    -0.2900 o          1 GHC      -0.742500
     25 OAD         -4.8710    -2.9190    -2.0710 o          1 GHC      -0.742500
     26 CBG         -6.0240    -0.7010    -0.1820 c3         1 GHC      -0.056400
     27 CAN         -5.9680     0.5390     0.7480 c3         1 GHC      -0.200400
     28 CAV         -7.2330     1.3990     0.5630 c          1 GHC       0.712000
     29 OAF         -8.2100     1.1440     1.2500 o          1 GHC      -0.760500
     30 OAC         -7.2230     2.2650    -0.2980 o          1 GHC      -0.760500
     31 H13          4.8400     4.1390     1.0810 hc         1 GHC       0.049700
     32 H13A         3.9550     4.1400    -0.4280 hc         1 GHC       0.049700
     33 HN1          3.9490    -3.2070    -1.0620 hn         1 GHC       0.322500
     34 HN2          5.5970    -4.2470     0.1460 hn         1 GHC       0.503500
     35 HN2A         6.1340    -3.5320     1.6010 hn         1 GHC       0.503500
     36 H29          1.7920     3.9140     0.7950 hc         1 GHC       0.041700
     37 H29A         2.6630     3.7720     2.3420 hc         1 GHC       0.041700
     38 H29B         2.7100     5.2940     1.4240 hc         1 GHC       0.041700
     39 HAJ          1.4790     1.5720     1.1340 ha         1 GHC       0.106500
     40 HAL         -0.5850     0.5660     1.9830 ha         1 GHC       0.134500
     41 HAI          0.2510     0.7070    -2.9190 ha         1 GHC       0.106500
     42 HAK         -1.8230    -0.2990    -2.0880 ha         1 GHC       0.134500
     43 HNAS        -3.2680    -1.0570    -1.2970 hn         1 GHC       0.299500
     44 HAP         -4.8390    -2.0300     1.0460 h1         1 GHC       0.054700
     45 HBG         -6.0580    -0.3680    -1.2270 hc         1 GHC       0.051200
     46 HBGA        -6.9650    -1.2350     0.0040 hc         1 GHC       0.051200
     47 HAN         -5.9180     0.1440     1.7710 hc         1 GHC       0.008700
     48 HANA        -5.0760     1.1050     0.4500 hc         1 GHC       0.008700
     49 C13          3.9570     3.7180     0.5840 c3         1 GHC      -0.003100
     50 N2           5.4140    -3.5870     0.8910 nv         1 GHC      -1.063200
@<TRIPOS>BOND
     1     1     2 2   
     2     1     6 1   
     3     1     8 1   
     4     2     3 1   
     5     2    11 1   
     6     3     4 1   
     7     3    10 2   
     8     4     9 1   
     9     4    33 1   
    10     5     8 1   
    11     5    11 2   
    12     5    49 1   
    13     6     9 2   
    14     7    36 1   
    15     7    37 1   
    16     7    38 1   
    17     7    49 1   
    18     9    50 1   
    19    11    12 1   
    20    12    13 1   
    21    13    14 ar  
    22    13    16 ar  
    23    14    15 ar  
    24    14    39 1   
    25    15    18 ar  
    26    15    40 1   
    27    16    17 ar  
    28    16    41 1   
    29    17    18 ar  
    30    17    42 1   
    31    18    19 1   
    32    19    20 2   
    33    19    21 1   
    34    21    22 1   
    35    21    43 1   
    36    22    23 1   
    37    22    26 1   
    38    22    44 1   
    39    23    24 1   
    40    23    25 1   
    41    26    27 1   
    42    26    45 1   
    43    26    46 1   
    44    27    28 1   
    45    27    47 1   
    46    27    48 1   
    47    28    29 1   
    48    28    30 1   
    49    31    49 1   
    50    32    49 1   
    51    34    50 1   
    52    35    50 1   
@<TRIPOS>SUBSTRUCTURE
     1 GHC         1 TEMP              0 ****  ****    0 ROOT
