@<TRIPOS>MOLECULE
GHD
   81    82     1     0     0
SMALL
No Charge or Current Charge


@<TRIPOS>ATOM
      1 N1          -5.3440     7.4160    23.9880 ns         1 GHD      -0.488900
      2 C4          -6.4090     8.7190    22.1160 c6         1 GHD       0.163300
      3 C5          -7.3350     8.1090    20.9940 c3         1 GHD       0.146300
      4 C6          -8.8670     8.4290    21.1400 c3         1 GHD       0.201300
      5 C7          -9.7290     7.8360    19.9910 c3         1 GHD       0.155600
      6 C8          -5.7820    10.9240    23.0660 c6         1 GHD       0.254000
      7 C10         -2.6000    10.2460    21.0480 c6         1 GHD       0.131300
      8 C13          0.8990     6.4590    21.4370 c3         1 GHD       0.138300
      9 C15         -0.0820     7.7910    23.5430 c3         1 GHD       0.130300
     10 C17         -0.1930     6.4570    25.7430 c          1 GHD       0.541900
     11 C20         -2.2590    10.2360    19.5010 c6         1 GHD       0.104300
     12 C21         -6.1390    12.5040    23.0400 c          1 GHD       0.713000
     13 C22         -6.0410    10.3890    24.5160 c6         1 GHD      -0.124400
     14 C2          -4.8480     6.2320    23.5060 c          1 GHD       0.598100
     15 O1          -5.3830     5.6170    22.5950 o          1 GHD      -0.640100
     16 C3          -6.5850     8.0800    23.5390 c6         1 GHD       0.093700
     17 O2          -6.9050     8.5440    19.6790 oh         1 GHD      -0.721000
     18 O3          -9.4300     7.9170    22.3580 oh         1 GHD      -0.702000
     19 O4         -11.1280     7.9290    20.3340 oh         1 GHD      -0.705000
     20 O5          -6.6160    10.1620    22.1330 os         1 GHD      -0.469000
     21 O7          -2.6320     8.8890    21.5840 os         1 GHD      -0.441000
     22 C11         -1.6890     8.0050    20.9700 c6         1 GHD       0.350300
     23 O8          -1.5210     6.8270    21.7770 os         1 GHD      -0.436000
     24 C12         -0.2660     6.6400    22.4810 c3         1 GHD       0.195300
     25 O9           0.5130     5.5610    20.3750 oh         1 GHD      -0.728000
     26 C14          2.2050     5.8920    22.0500 c3         1 GHD       0.123600
     27 O10          3.0850     5.4660    20.9920 oh         1 GHD      -0.672000
     28 O11          0.6440     8.9090    23.0080 oh         1 GHD      -0.717000
     29 C16          0.6730     7.3850    24.8410 c3         1 GHD       0.016300
     30 O12          1.0770     8.6050    25.5350 oh         1 GHD      -0.642000
     31 C18         -2.2020     7.6380    19.5410 c6         1 GHD       0.145300
     32 O14         -1.1770     6.9470    18.7810 oh         1 GHD      -0.735000
     33 C19         -2.7430     8.9180    18.8030 c6         1 GHD       0.189300
     34 O15         -4.1820     8.9230    18.7310 oh         1 GHD      -0.652000
     35 O16         -2.7580    11.4040    18.8100 oh         1 GHD      -0.732000
     36 O17         -5.1940    13.2880    23.0180 o          1 GHD      -0.699500
     37 O18         -7.1630    12.8310    22.4440 o          1 GHD      -0.699500
     38 C23         -7.0200     9.1830    24.5550 c6         1 GHD       0.152300
     39 O19         -7.0770     8.6610    25.8960 oh         1 GHD      -0.690000
     40 H4          -4.8460     7.8330    24.7650 hn         1 GHD       0.324500
     41 H6          -5.3770     8.5270    21.7920 h1         1 GHD       0.040700
     42 H7          -7.2220     7.0180    21.0550 h1         1 GHD       0.044700
     43 H9          -8.9880     9.5210    21.1120 h1         1 GHD       0.066700
     44 H12         -9.4500     6.7860    19.8280 h1         1 GHD       0.014200
     45 H11         -9.5290     8.3860    19.0620 h1         1 GHD       0.014200
     46 H16         -1.8190    10.8090    21.5790 h1         1 GHD       0.074700
     47 H19          1.1450     7.4400    21.0070 h1         1 GHD       0.075700
     48 H24         -1.0860     8.1230    23.8480 h1         1 GHD       0.080700
     49 H33         -1.1610    10.2340    19.4210 h1         1 GHD       0.039700
     50 H35         -5.0850    10.1100    24.9810 hc         1 GHD       0.053200
     51 H36         -6.4450    11.1950    25.1430 hc         1 GHD       0.053200
     52 H5          -7.3610     7.3050    23.5090 h1         1 GHD       0.074700
     53 H8          -5.9170     8.4970    19.6420 ho         1 GHD       0.499000
     54 H10        -10.3760     7.7740    22.1000 ho         1 GHD       0.520000
     55 H13        -11.6380     7.6520    19.5360 ho         1 GHD       0.479000
     56 H17         -0.7250     8.5260    20.8740 h2         1 GHD       0.039700
     57 H18         -0.3410     5.6930    23.0300 h1         1 GHD       0.064700
     58 H20          1.3780     5.1340    20.1370 ho         1 GHD       0.517000
     59 H21          2.6880     6.6720    22.6540 h1         1 GHD       0.033200
     60 H22          1.9680     5.0480    22.7110 h1         1 GHD       0.033200
     61 H23          3.9430     5.2170    21.4070 ho         1 GHD       0.446000
     62 H25          1.0570     9.2960    23.8260 ho         1 GHD       0.553000
     63 H26          1.5590     6.7970    24.5740 h1         1 GHD       0.080700
     64 H27          1.0700     8.4140    26.5040 ho         1 GHD       0.463000
     65 H29         -3.0540     6.9570    19.6830 h1         1 GHD       0.073700
     66 H30         -0.6570     6.3910    19.4350 ho         1 GHD       0.525000
     67 H31         -2.3390     8.9170    17.7800 h1         1 GHD       0.046700
     68 H32         -4.3920     9.8140    18.3660 ho         1 GHD       0.461000
     69 H34         -2.0510    12.0930    18.8370 ho         1 GHD       0.522000
     70 H37         -8.0170     9.5400    24.2460 h1         1 GHD       0.096700
     71 H38         -7.4500     9.3700    26.4650 ho         1 GHD       0.450000
     72 C1          -3.5850     5.7410    24.2030 c3         1 GHD      -0.180100
     73 O13         -0.4530     6.7070    26.9160 o          1 GHD      -0.511100
     74 H3          -3.1510     4.8590    23.7190 hc         1 GHD       0.052700
     75 H1          -2.8710     6.5670    24.2790 hc         1 GHD       0.052700
     76 H2          -3.8220     5.5390    25.2540 hc         1 GHD       0.052700
     77 O6          -4.3880    10.6540    22.7220 os         1 GHD      -0.470000
     78 C9          -3.9790    10.9190    21.3580 c3         1 GHD       0.200600
     79 H28         -0.5660     5.5260    25.2630 h4         1 GHD      -0.007800
     80 H15         -3.8910    11.9980    21.1810 h1         1 GHD       0.050700
     81 H14         -4.7160    10.5330    20.6460 h1         1 GHD       0.050700
@<TRIPOS>BOND
     1     1    14 1   
     2     1    16 1   
     3     1    40 1   
     4     2     3 1   
     5     2    16 1   
     6     2    20 1   
     7     2    41 1   
     8     3     4 1   
     9     3    17 1   
    10     3    42 1   
    11     4     5 1   
    12     4    18 1   
    13     4    43 1   
    14     5    19 1   
    15     5    44 1   
    16     5    45 1   
    17     6    12 1   
    18     6    13 1   
    19     6    20 1   
    20     6    77 1   
    21     7    11 1   
    22     7    21 1   
    23     7    46 1   
    24     7    78 1   
    25     8    24 1   
    26     8    25 1   
    27     8    26 1   
    28     8    47 1   
    29     9    24 1   
    30     9    28 1   
    31     9    29 1   
    32     9    48 1   
    33    10    29 1   
    34    10    73 2   
    35    10    79 1   
    36    11    33 1   
    37    11    35 1   
    38    11    49 1   
    39    12    36 1   
    40    12    37 1   
    41    13    38 1   
    42    13    50 1   
    43    13    51 1   
    44    14    15 2   
    45    14    72 1   
    46    16    38 1   
    47    16    52 1   
    48    17    53 1   
    49    18    54 1   
    50    19    55 1   
    51    21    22 1   
    52    22    23 1   
    53    22    31 1   
    54    22    56 1   
    55    23    24 1   
    56    24    57 1   
    57    25    58 1   
    58    26    27 1   
    59    26    59 1   
    60    26    60 1   
    61    27    61 1   
    62    28    62 1   
    63    29    30 1   
    64    29    63 1   
    65    30    64 1   
    66    31    32 1   
    67    31    33 1   
    68    31    65 1   
    69    32    66 1   
    70    33    34 1   
    71    33    67 1   
    72    34    68 1   
    73    35    69 1   
    74    38    39 1   
    75    38    70 1   
    76    39    71 1   
    77    72    74 1   
    78    72    75 1   
    79    72    76 1   
    80    77    78 1   
    81    78    80 1   
    82    78    81 1   
@<TRIPOS>SUBSTRUCTURE
     1 GHD         1 TEMP              0 ****  ****    0 ROOT
