@<TRIPOS>MOLECULE
GHD
   81    82     1     0     0
SMALL
abcg2


@<TRIPOS>ATOM
      1 N1          -6.9290     6.6600    24.6390 ns         1 GHD      -0.488900
      2 C4          -7.1270     7.9550    22.5260 c6         1 GHD       0.163300
      3 C5          -8.4840     8.1100    21.8230 c3         1 GHD       0.146300
      4 C6          -8.8990     9.5810    21.6040 c3         1 GHD       0.201300
      5 C7         -10.3930     9.6330    21.3410 c3         1 GHD       0.155600
      6 C8          -5.0720     9.3040    22.5310 c6         1 GHD       0.254000
      7 C10         -2.4950     9.1360    20.1080 c6         1 GHD       0.131300
      8 C13          1.9720     8.4280    21.8090 c3         1 GHD       0.138300
      9 C15         -0.2050     7.8890    23.1420 c3         1 GHD       0.130300
     10 C17          0.3400     6.1020    24.8570 c          1 GHD       0.541900
     11 C20         -2.1920     9.4000    18.6060 c6         1 GHD       0.104300
     12 C21         -4.9620    10.8670    22.4760 c          1 GHD       0.713000
     13 C22         -4.9330     8.8540    23.9860 c6         1 GHD      -0.124400
     14 C2          -7.6190     5.5350    24.3940 c          1 GHD       0.598100
     15 O1          -8.5330     5.4680    23.5810 o          1 GHD      -0.640100
     16 C3          -7.2480     7.9640    24.0780 c6         1 GHD       0.093700
     17 O2          -8.4610     7.5200    20.5380 oh         1 GHD      -0.721000
     18 O3          -8.6080    10.4110    22.6970 oh         1 GHD      -0.702000
     19 O4         -10.7450    10.9220    20.8890 oh         1 GHD      -0.705000
     20 O5          -6.3200     8.9840    22.0000 os         1 GHD      -0.469000
     21 O7          -1.8190     7.9740    20.5480 os         1 GHD      -0.441000
     22 C11         -0.4820     7.9900    20.1500 c6         1 GHD       0.350300
     23 O8           0.2150     7.0430    20.8810 os         1 GHD      -0.436000
     24 C12          0.8320     7.4390    22.0960 c3         1 GHD       0.195300
     25 O9           2.7170     7.8660    20.7480 oh         1 GHD      -0.728000
     26 C14          2.8680     8.6640    23.0170 c3         1 GHD       0.123600
     27 O10          3.9630     9.4340    22.5700 oh         1 GHD      -0.672000
     28 O11         -0.4320     9.2660    22.9960 oh         1 GHD      -0.717000
     29 C16          0.1350     7.5790    24.6250 c3         1 GHD       0.016300
     30 O12         -0.8750     8.0920    25.4450 oh         1 GHD      -0.642000
     31 C18         -0.3920     7.6300    18.6660 c6         1 GHD       0.145300
     32 O14          0.7620     8.1850    18.0830 oh         1 GHD      -0.735000
     33 C19         -1.6280     8.1570    17.9220 c6         1 GHD       0.189300
     34 O15         -2.5780     7.1190    17.8580 oh         1 GHD      -0.652000
     35 O16         -3.3210     9.8060    17.8660 oh         1 GHD      -0.732000
     36 O17         -3.8170    11.3370    22.4540 o          1 GHD      -0.699500
     37 O18         -6.0370    11.5060    22.5320 o          1 GHD      -0.699500
     38 C23         -6.2780     8.9800    24.6850 c6         1 GHD       0.152300
     39 O19         -6.1950     8.7290    26.0720 oh         1 GHD      -0.690000
     40 H4          -6.2900     6.6540    25.4190 hn         1 GHD       0.324500
     41 H6          -6.7070     6.9800    22.2450 h1         1 GHD       0.040700
     42 H7          -9.2350     7.6170    22.4520 h1         1 GHD       0.044700
     43 H9          -8.3830     9.9310    20.6980 h1         1 GHD       0.066700
     44 H12        -10.9210     9.3710    22.2700 h1         1 GHD       0.014200
     45 H11        -10.6490     8.8650    20.6020 h1         1 GHD       0.014200
     46 H16         -2.1340     9.9950    20.6900 h1         1 GHD       0.074700
     47 H19          1.5640     9.4020    21.5080 h1         1 GHD       0.075700
     48 H24         -1.1200     7.3220    22.9290 h1         1 GHD       0.080700
     49 H33         -1.4110    10.1710    18.5480 h1         1 GHD       0.039700
     50 H35         -4.5880     7.8160    24.0240 hc         1 GHD       0.053200
     51 H36         -4.1720     9.4600    24.4840 hc         1 GHD       0.053200
     52 H5          -8.2690     8.2350    24.3650 h1         1 GHD       0.074700
     53 H8          -8.4670     6.5650    20.6500 ho         1 GHD       0.499000
     54 H10         -7.6830    10.7280    22.6110 ho         1 GHD       0.520000
     55 H13        -11.6850    10.9200    20.6900 ho         1 GHD       0.479000
     56 H17         -0.0680     9.0020    20.2900 h2         1 GHD       0.039700
     57 H18          1.2980     6.5110    22.4420 h1         1 GHD       0.064700
     58 H20          3.5320     8.3780    20.6790 ho         1 GHD       0.517000
     59 H21          2.3110     9.1960    23.7950 h1         1 GHD       0.033200
     60 H22          3.1940     7.7020    23.4340 h1         1 GHD       0.033200
     61 H23          4.6840     9.3400    23.1990 ho         1 GHD       0.446000
     62 H25         -1.2820     9.4840    23.3920 ho         1 GHD       0.553000
     63 H26          1.0710     8.0740    24.9070 h1         1 GHD       0.080700
     64 H27         -1.5580     7.4180    25.5510 ho         1 GHD       0.463000
     65 H29         -0.4000     6.5340    18.5750 h1         1 GHD       0.073700
     66 H30          1.5140     7.9840    18.6540 ho         1 GHD       0.525000
     67 H31         -1.3070     8.4500    16.9120 h1         1 GHD       0.046700
     68 H32         -3.3600     7.4570    17.4100 ho         1 GHD       0.461000
     69 H34         -3.5600    10.7040    18.1190 ho         1 GHD       0.522000
     70 H37         -6.6850     9.9800    24.5140 h1         1 GHD       0.096700
     71 H38         -5.5420     9.3270    26.4490 ho         1 GHD       0.450000
     72 C1          -7.1860     4.3290    25.1920 c3         1 GHD      -0.180100
     73 O13         -0.4360     5.4300    25.4880 o          1 GHD      -0.511100
     74 H3          -6.9260     3.5180    24.5120 hc         1 GHD       0.052700
     75 H1          -6.3380     4.5150    25.8480 hc         1 GHD       0.052700
     76 H2          -8.0220     3.9840    25.8010 hc         1 GHD       0.052700
     77 O6          -4.0530     8.6650    21.8260 os         1 GHD      -0.470000
     78 C9          -3.9600     8.9440    20.4420 c3         1 GHD       0.200600
     79 H28          1.2510     5.6620    24.4200 h4         1 GHD      -0.007800
     80 H15         -4.5140     9.8440    20.1640 h1         1 GHD       0.050700
     81 H14         -4.3810     8.1140    19.8650 h1         1 GHD       0.050700
@<TRIPOS>BOND
     1     1    14 1   
     2     1    16 1   
     3     1    40 1   
     4     2     3 1   
     5     2    16 1   
     6     2    20 1   
     7     2    41 1   
     8     3     4 1   
     9     3    17 1   
    10     3    42 1   
    11     4     5 1   
    12     4    18 1   
    13     4    43 1   
    14     5    19 1   
    15     5    44 1   
    16     5    45 1   
    17     6    12 1   
    18     6    13 1   
    19     6    20 1   
    20     6    77 1   
    21     7    11 1   
    22     7    21 1   
    23     7    46 1   
    24     7    78 1   
    25     8    24 1   
    26     8    25 1   
    27     8    26 1   
    28     8    47 1   
    29     9    24 1   
    30     9    28 1   
    31     9    29 1   
    32     9    48 1   
    33    10    29 1   
    34    10    73 2   
    35    10    79 1   
    36    11    33 1   
    37    11    35 1   
    38    11    49 1   
    39    12    36 1   
    40    12    37 1   
    41    13    38 1   
    42    13    50 1   
    43    13    51 1   
    44    14    15 2   
    45    14    72 1   
    46    16    38 1   
    47    16    52 1   
    48    17    53 1   
    49    18    54 1   
    50    19    55 1   
    51    21    22 1   
    52    22    23 1   
    53    22    31 1   
    54    22    56 1   
    55    23    24 1   
    56    24    57 1   
    57    25    58 1   
    58    26    27 1   
    59    26    59 1   
    60    26    60 1   
    61    27    61 1   
    62    28    62 1   
    63    29    30 1   
    64    29    63 1   
    65    30    64 1   
    66    31    32 1   
    67    31    33 1   
    68    31    65 1   
    69    32    66 1   
    70    33    34 1   
    71    33    67 1   
    72    34    68 1   
    73    35    69 1   
    74    38    39 1   
    75    38    70 1   
    76    39    71 1   
    77    72    74 1   
    78    72    75 1   
    79    72    76 1   
    80    77    78 1   
    81    78    80 1   
    82    78    81 1   
@<TRIPOS>SUBSTRUCTURE
     1 GHD         1 TEMP              0 ****  ****    0 ROOT
