@<TRIPOS>MOLECULE
GHE
   46    47     1     0     0
SMALL
bcc


@<TRIPOS>ATOM
      1 N1           4.2710    -0.5010    -0.4530 n          1 GHE      -0.455300
      2 C2           5.5780     0.1380    -0.4070 c5         1 GHE      -0.022800
      3 C3           6.5210    -1.0260    -0.0650 c5         1 GHE      -0.079400
      4 C4           5.7790    -2.2640    -0.5530 c5         1 GHE      -0.097900
      5 C5           4.3300    -1.9360    -0.2240 c5         1 GHE       0.111500
      6 C1           5.6820     1.2500     0.6580 c          1 GHE       0.939600
      7 O2           5.0250     1.0930     1.7010 o          1 GHE      -0.831550
      8 O1           6.4810     2.1720     0.3970 o          1 GHE      -0.831550
      9 C6           3.1620     0.2230    -0.6570 c          1 GHE       0.677600
     10 O6           3.2170     1.4250    -0.9040 o          1 GHE      -0.610600
     11 C7           1.8440    -0.5220    -0.5900 c3         1 GHE      -0.152900
     12 C8           0.6260     0.3870    -0.6110 c3         1 GHE      -0.067400
     13 C9          -0.6720    -0.4120    -0.6010 c3         1 GHE      -0.067400
     14 C10         -1.8890     0.4990    -0.5770 c3         1 GHE      -0.152900
     15 C11         -3.2090    -0.2440    -0.6350 c          1 GHE       0.677600
     16 O11         -3.2660    -1.4480    -0.8650 o          1 GHE      -0.610600
     17 N2          -4.3160     0.4870    -0.4450 n          1 GHE      -0.455300
     18 C15         -5.6290    -0.1430    -0.4070 c5         1 GHE      -0.022800
     19 C14         -6.5670     1.0300    -0.0830 c5         1 GHE      -0.079400
     20 C13         -5.8120     2.2590    -0.5770 c5         1 GHE      -0.097900
     21 C12         -4.3690     1.9250    -0.2320 c5         1 GHE       0.111500
     22 C16         -5.7560    -1.2460     0.6640 c          1 GHE       0.939600
     23 O16         -5.1090    -1.0910     1.7140 o          1 GHE      -0.831550
     24 O17         -6.5640    -2.1600     0.4000 o          1 GHE      -0.831550
     25 H2           5.8270     0.5450    -1.3930 h1         1 GHE       0.043700
     26 H31C         7.5050    -0.9040    -0.5160 hc         1 GHE       0.043200
     27 H32C         6.6590    -1.0900     1.0180 hc         1 GHE       0.043200
     28 H41C         5.8980    -2.3830    -1.6320 hc         1 GHE       0.024700
     29 H42C         6.1150    -3.1840    -0.0750 hc         1 GHE       0.024700
     30 H51C         4.0960    -2.1820     0.8170 h1         1 GHE       0.029450
     31 H52C         3.6280    -2.4760    -0.8600 h1         1 GHE       0.029450
     32 H71C         1.7960    -1.2220    -1.4320 hc         1 GHE       0.043700
     33 H72C         1.8220    -1.1490     0.3080 hc         1 GHE       0.043700
     34 H81C         0.6510     1.0580     0.2530 hc         1 GHE       0.047450
     35 H82C         0.6520     1.0260    -1.4970 hc         1 GHE       0.047450
     36 H91C        -0.7060    -1.0590    -1.4820 hc         1 GHE       0.047450
     37 H92C        -0.6900    -1.0760     0.2680 hc         1 GHE       0.047450
     38 H101        -1.8620     1.1280     0.3180 hc         1 GHE       0.043700
     39 H102        -1.8430     1.1960    -1.4220 hc         1 GHE       0.043700
     40 H15         -5.8700    -0.5550    -1.3920 h1         1 GHE       0.043700
     41 H141        -7.5470     0.9100    -0.5430 hc         1 GHE       0.043200
     42 H142        -6.7140     1.1060     0.9970 hc         1 GHE       0.043200
     43 H131        -5.9210     2.3680    -1.6580 hc         1 GHE       0.024700
     44 H132        -6.1460     3.1860    -0.1120 hc         1 GHE       0.024700
     45 H121        -4.1430     2.1800     0.8090 h1         1 GHE       0.029450
     46 H122        -3.6570     2.4540    -0.8660 h1         1 GHE       0.029450
@<TRIPOS>BOND
     1     1     2 1   
     2     1     5 1   
     3     1     9 1   
     4     2     3 1   
     5     2     6 1   
     6     2    25 1   
     7     3     4 1   
     8     3    26 1   
     9     3    27 1   
    10     4     5 1   
    11     4    28 1   
    12     4    29 1   
    13     5    30 1   
    14     5    31 1   
    15     6     7 1   
    16     6     8 1   
    17     9    10 2   
    18     9    11 1   
    19    11    12 1   
    20    11    32 1   
    21    11    33 1   
    22    12    13 1   
    23    12    34 1   
    24    12    35 1   
    25    13    14 1   
    26    13    36 1   
    27    13    37 1   
    28    14    15 1   
    29    14    38 1   
    30    14    39 1   
    31    15    16 2   
    32    15    17 1   
    33    17    18 1   
    34    17    21 1   
    35    18    19 1   
    36    18    22 1   
    37    18    40 1   
    38    19    20 1   
    39    19    41 1   
    40    19    42 1   
    41    20    21 1   
    42    20    43 1   
    43    20    44 1   
    44    21    45 1   
    45    21    46 1   
    46    22    23 1   
    47    22    24 1   
@<TRIPOS>SUBSTRUCTURE
     1 GHE         1 TEMP              0 ****  ****    0 ROOT
