@<TRIPOS>MOLECULE
GHE
   46    47     1     0     0
SMALL
No Charge or Current Charge


@<TRIPOS>ATOM
      1 N1           4.4290    -0.4990    -0.4370 n          1 GHE      -0.388300
      2 C2           5.7890     0.1130    -0.3200 c5         1 GHE      -0.022800
      3 C3           6.6510    -1.1180     0.0940 c5         1 GHE      -0.079400
      4 C4           5.9610    -2.2640    -0.6820 c5         1 GHE      -0.097900
      5 C5           4.4610    -1.9770    -0.4140 c5         1 GHE       0.111500
      6 C1           5.9560     1.2560     0.7470 c          1 GHE       0.729000
      7 O2           5.4730     1.1210     1.8650 o          1 GHE      -0.726250
      8 O1           6.5690     2.2670     0.4320 o          1 GHE      -0.726250
      9 C6           3.2490     0.2610    -0.5930 c          1 GHE       0.610600
     10 O6           3.3020     1.4780    -0.7280 o          1 GHE      -0.610600
     11 C7           1.8970    -0.4880    -0.5970 c3         1 GHE      -0.152900
     12 C8           0.6310     0.4030    -0.6000 c3         1 GHE      -0.067400
     13 C9          -0.6790    -0.4150    -0.5970 c3         1 GHE      -0.067400
     14 C10         -1.9450     0.4760    -0.6020 c3         1 GHE      -0.152900
     15 C11         -3.2960    -0.2740    -0.5920 c          1 GHE       0.610600
     16 O11         -3.3490    -1.4920    -0.7170 o          1 GHE      -0.610600
     17 N2          -4.4770     0.4880    -0.4430 n          1 GHE      -0.388300
     18 C15         -5.8360    -0.1230    -0.3220 c5         1 GHE      -0.022800
     19 C14         -6.6990     1.1110     0.0810 c5         1 GHE      -0.079400
     20 C13         -6.0080     2.2510    -0.7040 c5         1 GHE      -0.097900
     21 C12         -4.5080     1.9660    -0.4330 c5         1 GHE       0.111500
     22 C16         -6.0040    -1.2570     0.7540 c          1 GHE       0.729000
     23 O16         -5.5220    -1.1130     1.8720 o          1 GHE      -0.726250
     24 O17         -6.6170    -2.2710     0.4470 o          1 GHE      -0.726250
     25 H2           6.1050     0.4990    -1.2980 h1         1 GHE       0.043700
     26 H31C         7.7070    -0.9980    -0.1740 hc         1 GHE       0.043200
     27 H32C         6.6070    -1.3010     1.1740 hc         1 GHE       0.043200
     28 H41C         6.1880    -2.2080    -1.7530 hc         1 GHE       0.024700
     29 H42C         6.2650    -3.2570    -0.3330 hc         1 GHE       0.024700
     30 H51C         4.1470    -2.3530     0.5680 h1         1 GHE       0.029450
     31 H52C         3.8230    -2.4270    -1.1860 h1         1 GHE       0.029450
     32 H71C         1.9000    -1.1740    -1.4520 hc         1 GHE       0.043700
     33 H72C         1.8920    -1.1920     0.2440 hc         1 GHE       0.043700
     34 H81C         0.6500     1.0580     0.2800 hc         1 GHE       0.047450
     35 H82C         0.6480     1.0510    -1.4850 hc         1 GHE       0.047450
     36 H91C        -0.6950    -1.0710    -1.4770 hc         1 GHE       0.047450
     37 H92C        -0.6970    -1.0630     0.2880 hc         1 GHE       0.047450
     38 H101        -1.9400     1.1870     0.2330 hc         1 GHE       0.043700
     39 H102        -1.9470     1.1540    -1.4630 hc         1 GHE       0.043700
     40 H15         -6.1520    -0.5180    -1.2960 h1         1 GHE       0.043700
     41 H141        -7.7540     0.9890    -0.1860 hc         1 GHE       0.043200
     42 H142        -6.6550     1.3040     1.1600 hc         1 GHE       0.043200
     43 H131        -6.2350     2.1850    -1.7740 hc         1 GHE       0.024700
     44 H132        -6.3130     3.2470    -0.3640 hc         1 GHE       0.024700
     45 H121        -4.1950     2.3500     0.5470 h1         1 GHE       0.029450
     46 H122        -3.8700     2.4090    -1.2080 h1         1 GHE       0.029450
@<TRIPOS>BOND
     1     1     2 1   
     2     1     5 1   
     3     1     9 1   
     4     2     3 1   
     5     2     6 1   
     6     2    25 1   
     7     3     4 1   
     8     3    26 1   
     9     3    27 1   
    10     4     5 1   
    11     4    28 1   
    12     4    29 1   
    13     5    30 1   
    14     5    31 1   
    15     6     7 1   
    16     6     8 1   
    17     9    10 2   
    18     9    11 1   
    19    11    12 1   
    20    11    32 1   
    21    11    33 1   
    22    12    13 1   
    23    12    34 1   
    24    12    35 1   
    25    13    14 1   
    26    13    36 1   
    27    13    37 1   
    28    14    15 1   
    29    14    38 1   
    30    14    39 1   
    31    15    16 2   
    32    15    17 1   
    33    17    18 1   
    34    17    21 1   
    35    18    19 1   
    36    18    22 1   
    37    18    40 1   
    38    19    20 1   
    39    19    41 1   
    40    19    42 1   
    41    20    21 1   
    42    20    43 1   
    43    20    44 1   
    44    21    45 1   
    45    21    46 1   
    46    22    23 1   
    47    22    24 1   
@<TRIPOS>SUBSTRUCTURE
     1 GHE         1 TEMP              0 ****  ****    0 ROOT
