@<TRIPOS>MOLECULE
GHF
   60    64     1     0     0
SMALL
bcc


@<TRIPOS>ATOM
      1 CBH          6.5490     0.0680    19.5380 cx         1 GHF      -0.125900
      2 CBI          6.0740     0.5390    18.1990 cx         1 GHF      -0.125900
      3 CBG          6.5460    -0.8660    18.3750 cx         1 GHF      -0.011000
      4 NBD          7.7960    -1.2450    17.7990 na         1 GHF       0.133400
      5 CBC          8.2230    -1.0000    16.5490 cc         1 GHF      -0.116300
      6 NBE          8.6580    -1.9880    18.4900 nc         1 GHF      -0.517800
      7 CBF          9.6660    -2.2100    17.6730 cd         1 GHF       0.334200
      8 CBA          9.4540    -1.6100    16.4120 cd         1 GHF      -0.226300
      9 CAV         10.2830    -1.6150    15.2100 ca         1 GHF      -0.013000
     10 CAW         11.6700    -1.6460    15.2720 ca         1 GHF       0.158900
     11 FAZ         12.2630    -1.7040    16.4710 f          1 GHF      -0.123900
     12 CAU          9.7060    -1.5750    13.9390 ca         1 GHF      -0.107000
     13 CAT         10.4710    -1.5630    12.7830 ca         1 GHF      -0.133300
     14 CAX          9.7970    -1.5680    11.4260 c3         1 GHF       0.201400
     15 CAY          9.6030    -2.9930    10.9300 c3         1 GHF      -0.085100
     16 OBB         10.5460    -0.8790    10.4530 oh         1 GHF      -0.595800
     17 CAS         11.8570    -1.5730    12.8920 ca         1 GHF      -0.120000
     18 CAP         12.4690    -1.6130    14.1370 ca         1 GHF       0.010600
     19 NAO         13.8700    -1.6350    14.2480 ns         1 GHF      -0.481100
     20 CAM         14.5620    -0.6040    14.8190 c          1 GHF       0.723300
     21 OAN         13.9860     0.3490    15.3220 o          1 GHF      -0.597100
     22 CAI         16.0180    -0.7190    14.7880 cc         1 GHF      -0.280200
     23 CAH         16.8050    -1.8150    14.4230 cc         1 GHF      -0.047000
     24 CAF         16.9070     0.3120    15.1590 cd         1 GHF       0.070700
     25 CAA         16.7060     1.6270    15.6050 cd         1 GHF      -0.230000
     26 CAB         17.7970     2.4160    15.8800 cc         1 GHF       0.172100
     27 OAQ         17.7410     3.6760    16.3060 os         1 GHF      -0.306900
     28 CAR         16.4700     4.2790    16.4770 c3         1 GHF       0.120700
     29 CAC         19.1010     1.8850    15.7100 cc         1 GHF      -0.187000
     30 CAD         19.2700     0.6140    15.2770 cd         1 GHF      -0.038300
     31 NAE         18.1880    -0.1680    15.0020 na         1 GHF       0.077700
     32 CAG         18.1400    -1.4880    14.5490 cd         1 GHF      -0.279300
     33 CAJ         19.2950    -2.3180    14.2820 c          1 GHF       0.616300
     34 OAL         20.4430    -1.9200    14.4200 o          1 GHF      -0.560100
     35 CAK         19.0060    -3.7230    13.8170 c3         1 GHF      -0.187100
     36 H1           7.5090     0.4290    19.8840 hc         1 GHF       0.084950
     37 H2           5.8230    -0.1110    20.3190 hc         1 GHF       0.084950
     38 H3           6.7090     1.2260    17.6550 hc         1 GHF       0.084950
     39 H4           5.0140     0.6870    18.0400 hc         1 GHF       0.084950
     40 H5           5.8020    -1.6550    18.3590 h1         1 GHF       0.101700
     41 H6           7.6450    -0.4060    15.8590 h4         1 GHF       0.172000
     42 H7          10.5040    -2.8050    18.0020 h4         1 GHF       0.048100
     43 H8           8.6250    -1.5650    13.8560 ha         1 GHF       0.131000
     44 H9           8.8050    -1.1100    11.5450 h1         1 GHF       0.031700
     45 H10          8.9980    -3.5600    11.6360 hc         1 GHF       0.045367
     46 H11          9.0940    -3.0030     9.9660 hc         1 GHF       0.045367
     47 H12         10.5620    -3.5020    10.8220 hc         1 GHF       0.045367
     48 H13         10.6210     0.0430    10.7200 ho         1 GHF       0.408000
     49 H14         12.4800    -1.5460    12.0060 ha         1 GHF       0.146000
     50 H15         14.3550    -2.2660    13.6290 hn         1 GHF       0.319500
     51 H16         16.4530    -2.7840    14.1010 ha         1 GHF       0.150000
     52 H17         15.6920     1.9720    15.7230 ha         1 GHF       0.186000
     53 H18         16.6550     5.2980    16.8060 h1         1 GHF       0.050367
     54 H19         15.9090     4.3040    15.5400 h1         1 GHF       0.050367
     55 H20         15.8770     3.7620    17.2340 h1         1 GHF       0.050367
     56 H21         19.9710     2.4910    15.9230 ha         1 GHF       0.167000
     57 H22         20.2400     0.1710    15.1310 h4         1 GHF       0.199000
     58 H23         19.9390    -4.2530    13.6370 hc         1 GHF       0.062367
     59 H24         18.4300    -4.2720    14.5630 hc         1 GHF       0.062367
     60 H25         18.4220    -3.7200    12.8960 hc         1 GHF       0.062367
@<TRIPOS>BOND
     1     1     2 1   
     2     1     3 1   
     3     1    36 1   
     4     1    37 1   
     5     2     3 1   
     6     2    38 1   
     7     2    39 1   
     8     3     4 1   
     9     3    40 1   
    10     4     5 1   
    11     4     6 1   
    12     5     8 2   
    13     5    41 1   
    14     6     7 2   
    15     7     8 1   
    16     7    42 1   
    17     8     9 1   
    18     9    10 ar  
    19     9    12 ar  
    20    10    11 1   
    21    10    18 ar  
    22    12    13 ar  
    23    12    43 1   
    24    13    14 1   
    25    13    17 ar  
    26    14    15 1   
    27    14    16 1   
    28    14    44 1   
    29    15    45 1   
    30    15    46 1   
    31    15    47 1   
    32    16    48 1   
    33    17    18 ar  
    34    17    49 1   
    35    18    19 1   
    36    19    20 1   
    37    19    50 1   
    38    20    21 2   
    39    20    22 1   
    40    22    23 1   
    41    22    24 2   
    42    23    32 2   
    43    23    51 1   
    44    24    25 1   
    45    24    31 1   
    46    25    26 2   
    47    25    52 1   
    48    26    27 1   
    49    26    29 1   
    50    27    28 1   
    51    28    53 1   
    52    28    54 1   
    53    28    55 1   
    54    29    30 2   
    55    29    56 1   
    56    30    31 1   
    57    30    57 1   
    58    31    32 1   
    59    32    33 1   
    60    33    34 2   
    61    33    35 1   
    62    35    58 1   
    63    35    59 1   
    64    35    60 1   
@<TRIPOS>SUBSTRUCTURE
     1 GHF         1 TEMP              0 ****  ****    0 ROOT
