@<TRIPOS>MOLECULE
GHF
   60    64     1     0     0
SMALL
No Charge or Current Charge


@<TRIPOS>ATOM
      1 CBH          5.5290     0.1370    19.0650 cx         1 GHF      -0.125900
      2 CBI          5.0810    -0.4590    17.7530 cx         1 GHF      -0.125900
      3 CBG          6.3140    -0.9980    18.4460 cx         1 GHF       0.018300
      4 NBD          7.6860    -0.9040    17.9340 na         1 GHF       0.154800
      5 CBC          8.0430    -1.2310    16.6340 cc         1 GHF      -0.149000
      6 NBE          8.7250    -0.4800    18.7220 nc         1 GHF      -0.517800
      7 CBF          9.7480    -0.5450    17.8920 cd         1 GHF       0.268900
      8 CBA          9.3970    -1.0100    16.5910 cd         1 GHF      -0.161000
      9 CAV         10.2700    -1.1910    15.3990 ca         1 GHF      -0.013000
     10 CAW         11.6810    -1.0270    15.4410 ca         1 GHF       0.194000
     11 FAZ         12.3030    -0.7740    16.6130 f          1 GHF      -0.159000
     12 CAU          9.6790    -1.5540    14.1670 ca         1 GHF      -0.089000
     13 CAT         10.4540    -1.7590    13.0100 ca         1 GHF      -0.133300
     14 CAX          9.7780    -2.1650    11.7010 c3         1 GHF       0.224600
     15 CAY         10.2480    -3.5420    11.1940 c3         1 GHF      -0.085100
     16 OBB         10.0410    -1.1810    10.7000 oh         1 GHF      -0.658000
     17 CAS         11.8480    -1.5840    13.0740 ca         1 GHF      -0.102000
     18 CAP         12.4660    -1.2020    14.2750 ca         1 GHF      -0.082000
     19 NAO         13.8790    -1.0480    14.2720 ns         1 GHF      -0.155000
     20 CAM         14.6830    -0.0770    14.8520 c          1 GHF       0.656300
     21 OAN         14.2260     0.9170    15.4060 o          1 GHF      -0.597100
     22 CAI         16.1430    -0.3510    14.7020 cc         1 GHF      -0.280200
     23 CAH         16.7260    -1.4940    14.0580 cc         1 GHF      -0.097000
     24 CAF         17.1860     0.4260    15.1490 cd         1 GHF       0.020000
     25 CAA         17.1540     1.6680    15.8560 cd         1 GHF      -0.212000
     26 CAB         18.4060     2.1730    16.1500 cc         1 GHF       0.172100
     27 OAQ         18.5100     3.3660    16.8300 os         1 GHF      -0.330100
     28 CAR         17.3670     4.1310    17.2600 c3         1 GHF       0.143900
     29 CAC         19.6130     1.4910    15.7690 cc         1 GHF      -0.169000
     30 CAD         19.6220     0.2800    15.0800 cd         1 GHF      -0.071000
     31 NAE         18.3480    -0.2320    14.7810 na         1 GHF       0.179100
     32 CAG         18.1090    -1.4300    14.1010 cd         1 GHF      -0.279300
     33 CAJ         19.0440    -2.4420    13.5320 c          1 GHF       0.616300
     34 OAL         20.2600    -2.3260    13.6050 o          1 GHF      -0.560100
     35 CAK         18.4500    -3.6660    12.8360 c3         1 GHF      -0.187100
     36 H1           5.9740     1.1290    19.0460 hc         1 GHF       0.084950
     37 H2           4.9420    -0.0820    19.9540 hc         1 GHF       0.084950
     38 H3           5.2220     0.1350    16.8540 hc         1 GHF       0.084950
     39 H4           4.1900    -1.0830    17.7540 hc         1 GHF       0.084950
     40 H5           6.2330    -1.9760    18.9180 h1         1 GHF       0.101700
     41 H6           7.3280    -1.5770    15.8990 h4         1 GHF       0.154000
     42 H7          10.7160    -0.2420    18.2660 h4         1 GHF       0.048100
     43 H8           8.6040    -1.6870    14.0990 ha         1 GHF       0.113000
     44 H9           8.6940    -2.2270    11.8710 h1         1 GHF       0.031700
     45 H10         10.0620    -4.3100    11.9540 hc         1 GHF       0.045367
     46 H11          9.7030    -3.8230    10.2850 hc         1 GHF       0.045367
     47 H12         11.3190    -3.5370    10.9650 hc         1 GHF       0.045367
     48 H13          9.8420    -0.3130    11.1120 ho         1 GHF       0.447000
     49 H14         12.4530    -1.7320    12.1820 ha         1 GHF       0.128000
     50 H15         14.3790    -1.7700    13.7720 hn         1 GHF       0.153000
     51 H16         16.1510    -2.2990    13.6010 ha         1 GHF       0.200000
     52 H17         16.2270     2.1540    16.1280 ha         1 GHF       0.168000
     53 H18         17.6930     5.0400    17.7800 h1         1 GHF       0.050367
     54 H19         16.7530     4.4350    16.4030 h1         1 GHF       0.050367
     55 H20         16.7450     3.5510    17.9540 h1         1 GHF       0.050367
     56 H21         20.5550     1.9560    16.0390 ha         1 GHF       0.149000
     57 H22         20.5080    -0.2600    14.7780 h4         1 GHF       0.181000
     58 H23         19.2160    -4.3480    12.4530 hc         1 GHF       0.062367
     59 H24         17.7690    -4.1730    13.5280 hc         1 GHF       0.062367
     60 H25         17.7760    -3.3300    12.0400 hc         1 GHF       0.062367
@<TRIPOS>BOND
     1     1     2 1   
     2     1     3 1   
     3     1    36 1   
     4     1    37 1   
     5     2     3 1   
     6     2    38 1   
     7     2    39 1   
     8     3     4 1   
     9     3    40 1   
    10     4     5 1   
    11     4     6 1   
    12     5     8 2   
    13     5    41 1   
    14     6     7 2   
    15     7     8 1   
    16     7    42 1   
    17     8     9 1   
    18     9    10 ar  
    19     9    12 ar  
    20    10    11 1   
    21    10    18 ar  
    22    12    13 ar  
    23    12    43 1   
    24    13    14 1   
    25    13    17 ar  
    26    14    15 1   
    27    14    16 1   
    28    14    44 1   
    29    15    45 1   
    30    15    46 1   
    31    15    47 1   
    32    16    48 1   
    33    17    18 ar  
    34    17    49 1   
    35    18    19 1   
    36    19    20 1   
    37    19    50 1   
    38    20    21 2   
    39    20    22 1   
    40    22    23 1   
    41    22    24 2   
    42    23    32 2   
    43    23    51 1   
    44    24    25 1   
    45    24    31 1   
    46    25    26 2   
    47    25    52 1   
    48    26    27 1   
    49    26    29 1   
    50    27    28 1   
    51    28    53 1   
    52    28    54 1   
    53    28    55 1   
    54    29    30 2   
    55    29    56 1   
    56    30    31 1   
    57    30    57 1   
    58    31    32 1   
    59    32    33 1   
    60    33    34 2   
    61    33    35 1   
    62    35    58 1   
    63    35    59 1   
    64    35    60 1   
@<TRIPOS>SUBSTRUCTURE
     1 GHF         1 TEMP              0 ****  ****    0 ROOT
