@<TRIPOS>MOLECULE
GHG
   20    19     1     0     0
SMALL
bcc


@<TRIPOS>ATOM
      1 N           49.5710    37.2830    20.7160 n8         1 GHG      -0.897800
      2 CA          49.4810    38.4480    21.5850 c3         1 GHG       0.016500
      3 C           48.4940    39.4980    20.9910 c          1 GHG       0.930600
      4 O           47.6890    39.0830    20.1330 o          1 GHG      -0.830800
      5 CB          50.8500    39.0640    21.8540 c3         1 GHG      -0.047400
      6 CG          51.7880    38.1870    22.6710 c3         1 GHG       0.076100
      7 OG1         52.8860    38.9870    23.0560 oh         1 GHG      -0.578800
      8 CD          52.3030    36.9860    21.8700 c          1 GHG       0.652100
      9 OE1         53.0050    37.1310    20.8820 o          1 GHG      -0.590100
     10 NE2         51.9650    35.7840    22.3630 nt         1 GHG      -0.690000
     11 H           49.6320    36.4330    21.2580 hn         1 GHG       0.330300
     12 H2          48.7050    37.2390    20.1920 hn         1 GHG       0.330300
     13 HA          49.0480    38.1850    22.5660 h1         1 GHG      -0.010300
     14 HB2         51.3290    39.3260    20.9050 hc         1 GHG       0.074700
     15 HB3         50.7100    39.9880    22.4150 hc         1 GHG       0.074700
     16 HG          51.2420    37.8330    23.5580 h1         1 GHG       0.011700
     17 HG1         53.4440    38.4850    23.6590 ho         1 GHG       0.381000
     18 HE21        52.2360    34.9390    21.8860 hn         1 GHG       0.298500
     19 HE22        51.3810    35.6860    23.1770 hn         1 GHG       0.298500
     20 OXT         48.5600    40.6530    21.4520 o          1 GHG      -0.830800
@<TRIPOS>BOND
     1     1     2 1   
     2     1    11 1   
     3     1    12 1   
     4     2     3 1   
     5     2     5 1   
     6     2    13 1   
     7     3     4 1   
     8     3    20 1   
     9     5     6 1   
    10     5    14 1   
    11     5    15 1   
    12     6     7 1   
    13     6     8 1   
    14     6    16 1   
    15     7    17 1   
    16     8     9 2   
    17     8    10 1   
    18    10    18 1   
    19    10    19 1   
@<TRIPOS>SUBSTRUCTURE
     1 GHG         1 TEMP              0 ****  ****    0 ROOT
