@<TRIPOS>MOLECULE
GHG
   20    19     1     0     0
SMALL
No Charge or Current Charge


@<TRIPOS>ATOM
      1 N           49.4370    37.3450    20.5480 n8         1 GHG      -0.897800
      2 CA          49.3600    38.5670    21.4330 c3         1 GHG       0.016500
      3 C           48.4630    39.7780    20.8970 c          1 GHG       0.930600
      4 O           47.2510    39.7310    21.0890 o          1 GHG      -0.830800
      5 CB          50.7780    39.0550    21.8590 c3         1 GHG      -0.047400
      6 CG          51.6060    38.0380    22.6950 c3         1 GHG       0.076100
      7 OG1         52.5470    38.7730    23.5150 oh         1 GHG      -0.578800
      8 CD          52.3390    36.9550    21.8290 c          1 GHG       0.652100
      9 OE1         52.7890    37.1440    20.7090 o          1 GHG      -0.590100
     10 NE2         52.5070    35.7450    22.4160 nt         1 GHG      -0.690000
     11 H           49.8490    36.5640    21.0670 hn         1 GHG       0.330300
     12 H2          48.4850    37.0290    20.3310 hn         1 GHG       0.330300
     13 HA          48.8640    38.2210    22.3500 h1         1 GHG      -0.010300
     14 HB2         51.3490    39.3770    20.9800 hc         1 GHG       0.074700
     15 HB3         50.6360    39.9560    22.4700 hc         1 GHG       0.074700
     16 HG          50.9110    37.5080    23.3600 h1         1 GHG       0.011700
     17 HG1         53.0230    38.1230    24.0750 ho         1 GHG       0.381000
     18 HE21        52.9860    35.0150    21.9090 hn         1 GHG       0.298500
     19 HE22        52.1460    35.5770    23.3440 hn         1 GHG       0.298500
     20 OXT         48.9950    40.7180    20.3130 o          1 GHG      -0.830800
@<TRIPOS>BOND
     1     1     2 1   
     2     1    11 1   
     3     1    12 1   
     4     2     3 1   
     5     2     5 1   
     6     2    13 1   
     7     3     4 1   
     8     3    20 1   
     9     5     6 1   
    10     5    14 1   
    11     5    15 1   
    12     6     7 1   
    13     6     8 1   
    14     6    16 1   
    15     7    17 1   
    16     8     9 2   
    17     8    10 1   
    18    10    18 1   
    19    10    19 1   
@<TRIPOS>SUBSTRUCTURE
     1 GHG         1 TEMP              0 ****  ****    0 ROOT
