@<TRIPOS>MOLECULE
GHI
   27    28     1     0     0
SMALL
No Charge or Current Charge


@<TRIPOS>ATOM
      1 C2           6.3900    -2.6270    15.2040 c2         1 GHI      -0.325000
      2 C1           6.5020    -1.9670    14.0390 c2         1 GHI      -0.108400
      3 C            7.5760    -0.9230    13.7920 c3         1 GHI      -0.057900
      4 C3           5.5490    -2.2090    12.8640 c6         1 GHI      -0.025500
      5 C9           4.1060    -1.7440    13.1990 c6         1 GHI      -0.063400
      6 C8           3.0850    -2.0590    12.0920 cx         1 GHI       0.097300
      7 O            3.4640    -1.7660    10.7300 op         1 GHI      -0.444000
      8 C6           3.3670    -3.1630    11.1000 cx         1 GHI       0.098000
      9 C7           2.2090    -3.9230    10.4640 c3         1 GHI      -0.077100
     10 C5           4.7230    -3.9040    11.1190 c6         1 GHI      -0.061400
     11 C4           5.5360    -3.6960    12.4230 c6         1 GHI      -0.068400
     12 H1           7.0740    -2.4440    16.0330 ha         1 GHI       0.162000
     13 H2           5.6130    -3.3720    15.3750 ha         1 GHI       0.162000
     14 H3           8.2200    -0.7880    14.6690 hc         1 GHI       0.040367
     15 H4           8.2190    -1.2110    12.9520 hc         1 GHI       0.040367
     16 H5           7.1310     0.0510    13.5570 hc         1 GHI       0.040367
     17 H6           5.9030    -1.6170    12.0060 hc         1 GHI       0.067700
     18 H7           4.0940    -0.6650    13.4020 hc         1 GHI       0.053700
     19 H8           3.7640    -2.2330    14.1200 hc         1 GHI       0.053700
     20 H9           2.0480    -1.8280    12.3390 h1         1 GHI       0.081700
     21 H10          1.8540    -4.7160    11.1330 hc         1 GHI       0.046367
     22 H11          1.3630    -3.2600    10.2500 hc         1 GHI       0.046367
     23 H12          2.5170    -4.3910     9.5210 hc         1 GHI       0.046367
     24 H13          4.5620    -4.9800    10.9630 hc         1 GHI       0.053200
     25 H14          5.3160    -3.5610    10.2600 hc         1 GHI       0.053200
     26 H15          5.1050    -4.3190    13.2190 hc         1 GHI       0.044200
     27 H16          6.5630    -4.0530    12.2720 hc         1 GHI       0.044200
@<TRIPOS>BOND
     1     1     2 2   
     2     1    12 1   
     3     1    13 1   
     4     2     3 1   
     5     2     4 1   
     6     3    14 1   
     7     3    15 1   
     8     3    16 1   
     9     4     5 1   
    10     4    11 1   
    11     4    17 1   
    12     5     6 1   
    13     5    18 1   
    14     5    19 1   
    15     6     7 1   
    16     6     8 1   
    17     6    20 1   
    18     7     8 1   
    19     8     9 1   
    20     8    10 1   
    21     9    21 1   
    22     9    22 1   
    23     9    23 1   
    24    10    11 1   
    25    10    24 1   
    26    10    25 1   
    27    11    26 1   
    28    11    27 1   
@<TRIPOS>SUBSTRUCTURE
     1 GHI         1 TEMP              0 ****  ****    0 ROOT
