@<TRIPOS>MOLECULE
GHI
   27    28     1     0     0
SMALL
abcg2


@<TRIPOS>ATOM
      1 C2           6.8960    -2.9390    14.9080 c2         1 GHI      -0.325000
      2 C1           6.5570    -2.0470    13.9780 c2         1 GHI      -0.108400
      3 C            7.0860    -0.6430    14.0240 c3         1 GHI      -0.057900
      4 C3           5.6360    -2.3590    12.8220 c6         1 GHI      -0.025500
      5 C9           4.2950    -1.6330    12.9990 c6         1 GHI      -0.063400
      6 C8           3.3060    -1.9580    11.9150 cx         1 GHI       0.097300
      7 O            3.7810    -1.8770    10.5800 op         1 GHI      -0.444000
      8 C6           3.4250    -3.1630    11.0920 cx         1 GHI       0.098000
      9 C7           2.2020    -3.7740    10.4630 c3         1 GHI      -0.077100
     10 C5           4.5930    -4.1050    11.3130 c6         1 GHI      -0.061400
     11 C4           5.3630    -3.8420    12.6040 c6         1 GHI      -0.068400
     12 H1           7.5560    -2.6730    15.7240 ha         1 GHI       0.162000
     13 H2           6.5350    -3.9590    14.8980 ha         1 GHI       0.162000
     14 H3           7.7930    -0.5050    14.8410 hc         1 GHI       0.040367
     15 H4           7.5920    -0.3870    13.0900 hc         1 GHI       0.040367
     16 H5           6.2850     0.0890    14.1530 hc         1 GHI       0.040367
     17 H6           6.1190    -1.9620    11.9190 hc         1 GHI       0.067700
     18 H7           4.4340    -0.5490    13.0390 hc         1 GHI       0.053700
     19 H8           3.8540    -1.9260    13.9570 hc         1 GHI       0.053700
     20 H9           2.3100    -1.5390    12.0660 h1         1 GHI       0.081700
     21 H10          1.7960    -4.5560    11.1060 hc         1 GHI       0.046367
     22 H11          1.4210    -3.0310    10.2980 hc         1 GHI       0.046367
     23 H12          2.4480    -4.2330     9.5030 hc         1 GHI       0.046367
     24 H13          4.2250    -5.1340    11.3190 hc         1 GHI       0.053200
     25 H14          5.2620    -4.0300    10.4510 hc         1 GHI       0.053200
     26 H15          4.7860    -4.2270    13.4520 hc         1 GHI       0.044200
     27 H16          6.2980    -4.4060    12.5840 hc         1 GHI       0.044200
@<TRIPOS>BOND
     1     1     2 2   
     2     1    12 1   
     3     1    13 1   
     4     2     3 1   
     5     2     4 1   
     6     3    14 1   
     7     3    15 1   
     8     3    16 1   
     9     4     5 1   
    10     4    11 1   
    11     4    17 1   
    12     5     6 1   
    13     5    18 1   
    14     5    19 1   
    15     6     7 1   
    16     6     8 1   
    17     6    20 1   
    18     7     8 1   
    19     8     9 1   
    20     8    10 1   
    21     9    21 1   
    22     9    22 1   
    23     9    23 1   
    24    10    11 1   
    25    10    24 1   
    26    10    25 1   
    27    11    26 1   
    28    11    27 1   
@<TRIPOS>SUBSTRUCTURE
     1 GHI         1 TEMP              0 ****  ****    0 ROOT
