@<TRIPOS>MOLECULE
GHK
   37    38     1     0     0
SMALL
abcg2


@<TRIPOS>ATOM
      1 C4           1.9770     0.1460    -0.2810 ca         1 GHK       0.083000
      2 C14         -6.1060    -1.7460    -1.3590 ca         1 GHK      -0.129000
      3 C5           2.4870    -0.5430     0.8220 ca         1 GHK      -0.109500
      4 C6           3.8540    -0.6820     0.9890 ca         1 GHK      -0.018500
      5 C11         -5.4170    -0.8840     1.1990 ca         1 GHK      -0.018000
      6 C7           0.5700     0.2780    -0.4580 cg         1 GHK      -0.108000
      7 C8          -0.6190     0.3850    -0.6130 c1         1 GHK      -0.110100
      8 C9          -2.0580     0.4690    -0.8030 c3         1 GHK       0.286900
      9 C10         -5.1400    -0.1020     0.0830 ca         1 GHK      -0.315500
     10 C12         -6.0460    -2.1060     1.0220 ca         1 GHK      -0.129000
     11 C13         -6.3890    -2.5370    -0.2540 ca         1 GHK      -0.054000
     12 N1           6.8760    -1.6940    -0.6180 n8         1 GHK      -0.999100
     13 N2          -2.6770     1.0760     0.3730 n7         1 GHK      -0.856300
     14 C3           2.8570     0.6990    -1.2150 ca         1 GHK      -0.109500
     15 O1           6.7380    -0.6360     1.6250 o          1 GHK      -0.526500
     16 O2           7.1200     0.7690    -0.4300 o          1 GHK      -0.526500
     17 C1           4.7120    -0.1320     0.0460 ca         1 GHK      -0.312500
     18 C2           4.2240     0.5620    -1.0530 ca         1 GHK      -0.018500
     19 S2          -4.2890     1.4360     0.3040 sy         1 GHK       1.146600
     20 O3          -4.4860     2.2350    -0.8930 o          1 GHK      -0.526000
     21 O4          -4.6300     1.9690     1.6110 o          1 GHK      -0.526000
     22 C15         -5.4790    -0.5190    -1.1970 ca         1 GHK      -0.018000
     23 H2           1.8120    -0.9680     1.5520 ha         1 GHK       0.127500
     24 H3           4.2350    -1.2120     1.8500 ha         1 GHK       0.139000
     25 H4          -5.1580    -0.5490     2.1940 ha         1 GHK       0.135500
     26 H5          -2.2700     1.0910    -1.6740 h1         1 GHK       0.072700
     27 H6          -2.4480    -0.5340    -1.0130 h1         1 GHK       0.072700
     28 H7          -6.2710    -2.7200     1.8830 ha         1 GHK       0.122000
     29 H8          -6.8810    -3.4910    -0.3870 ha         1 GHK       0.119000
     30 H9           6.4700    -2.5480    -0.2520 hn         1 GHK       0.477000
     31 H10          6.7290    -1.6130    -1.6180 hn         1 GHK       0.477000
     32 H11         -2.4280     0.6210     1.2460 hn         1 GHK       0.484000
     33 H12          2.4690     1.2370    -2.0680 ha         1 GHK       0.127500
     34 H13          4.8920     1.0010    -1.7820 ha         1 GHK       0.139000
     35 H14         -5.2700     0.0990    -2.0600 ha         1 GHK       0.135500
     36 S1           6.4650    -0.3480     0.2270 sy         1 GHK       1.143600
     37 H1          -6.3750    -2.0810    -2.3520 ha         1 GHK       0.122000
@<TRIPOS>BOND
     1     1     3 ar  
     2     1     6 1   
     3     1    14 ar  
     4     2    11 ar  
     5     2    22 ar  
     6     2    37 1   
     7     3     4 ar  
     8     3    23 1   
     9     4    17 ar  
    10     4    24 1   
    11     5     9 ar  
    12     5    10 ar  
    13     5    25 1   
    14     6     7 3   
    15     7     8 1   
    16     8    13 1   
    17     8    26 1   
    18     8    27 1   
    19     9    19 1   
    20     9    22 ar  
    21    10    11 ar  
    22    10    28 1   
    23    11    29 1   
    24    12    30 1   
    25    12    31 1   
    26    12    36 1   
    27    13    19 1   
    28    13    32 1   
    29    14    18 ar  
    30    14    33 1   
    31    15    36 2   
    32    16    36 2   
    33    17    18 ar  
    34    17    36 1   
    35    18    34 1   
    36    19    20 2   
    37    19    21 2   
    38    22    35 1   
@<TRIPOS>SUBSTRUCTURE
     1 GHK         1 TEMP              0 ****  ****    0 ROOT
