@<TRIPOS>MOLECULE
GHK
   37    38     1     0     0
SMALL
No Charge or Current Charge


@<TRIPOS>ATOM
      1 C4           1.9020    -0.0850     0.1950 ca         1 GHK       0.083000
      2 C14         -5.7790    -1.6550    -1.8410 ca         1 GHK      -0.129000
      3 C5           2.6580    -0.7810     1.1540 ca         1 GHK      -0.109500
      4 C6           4.0590    -0.8380     1.0470 ca         1 GHK      -0.018500
      5 C11         -5.5320    -0.8350     0.8390 ca         1 GHK      -0.018000
      6 C7           0.4730    -0.0280     0.3070 cg         1 GHK      -0.108000
      7 C8          -0.7380     0.0220     0.3930 c1         1 GHK      -0.110100
      8 C9          -2.1970     0.0460     0.5270 c3         1 GHK       0.286900
      9 C10         -5.0870     0.0110    -0.1990 ca         1 GHK      -0.315500
     10 C12         -6.0990    -2.0850     0.5320 ca         1 GHK      -0.129000
     11 C13         -6.2230    -2.4950    -0.8060 ca         1 GHK      -0.054000
     12 N1           6.7000    -1.6690    -0.9880 n8         1 GHK      -0.999100
     13 N2          -2.7280     1.2900    -0.0460 n7         1 GHK      -0.856300
     14 C3           2.5510     0.5550    -0.8760 ca         1 GHK      -0.109500
     15 O1           7.1070    -0.5080     1.1470 o          1 GHK      -0.526500
     16 O2           6.9750     0.7540    -1.0880 o          1 GHK      -0.526500
     17 C1           4.7120    -0.1960    -0.0270 ca         1 GHK      -0.312500
     18 C2           3.9510     0.5020    -0.9900 ca         1 GHK      -0.018500
     19 S2          -4.3460     1.6090     0.1780 sy         1 GHK       1.146600
     20 O3          -4.6990     2.5590    -0.8790 o          1 GHK      -0.526000
     21 O4          -4.4960     1.9170     1.6020 o          1 GHK      -0.526000
     22 C15         -5.2120    -0.4040    -1.5420 ca         1 GHK      -0.018000
     23 H2           2.1620    -1.2790     1.9840 ha         1 GHK       0.127500
     24 H3           4.6300    -1.3830     1.7980 ha         1 GHK       0.139000
     25 H4          -5.4420    -0.5330     1.8820 ha         1 GHK       0.135500
     26 H5          -2.6030    -0.8360     0.0130 h1         1 GHK       0.072700
     27 H6          -2.4480    -0.0440     1.5940 h1         1 GHK       0.072700
     28 H7          -6.4420    -2.7360     1.3330 ha         1 GHK       0.122000
     29 H8          -6.6610    -3.4630    -1.0410 ha         1 GHK       0.119000
     30 H9           5.7780    -1.8060    -1.3950 hn         1 GHK       0.477000
     31 H10          7.2670    -1.3500    -1.7700 hn         1 GHK       0.477000
     32 H11         -2.3100     2.0740     0.4490 hn         1 GHK       0.484000
     33 H12          1.9720     1.0960    -1.6210 ha         1 GHK       0.127500
     34 H13          4.4360     1.0060    -1.8250 ha         1 GHK       0.139000
     35 H14         -4.8660     0.2370    -2.3530 ha         1 GHK       0.135500
     36 S1           6.5000    -0.2720    -0.1630 sy         1 GHK       1.143600
     37 H1          -5.8730    -1.9730    -2.8770 ha         1 GHK       0.122000
@<TRIPOS>BOND
     1     1     3 ar  
     2     1     6 1   
     3     1    14 ar  
     4     2    11 ar  
     5     2    22 ar  
     6     2    37 1   
     7     3     4 ar  
     8     3    23 1   
     9     4    17 ar  
    10     4    24 1   
    11     5     9 ar  
    12     5    10 ar  
    13     5    25 1   
    14     6     7 3   
    15     7     8 1   
    16     8    13 1   
    17     8    26 1   
    18     8    27 1   
    19     9    19 1   
    20     9    22 ar  
    21    10    11 ar  
    22    10    28 1   
    23    11    29 1   
    24    12    30 1   
    25    12    31 1   
    26    12    36 1   
    27    13    19 1   
    28    13    32 1   
    29    14    18 ar  
    30    14    33 1   
    31    15    36 2   
    32    16    36 2   
    33    17    18 ar  
    34    17    36 1   
    35    18    34 1   
    36    19    20 2   
    37    19    21 2   
    38    22    35 1   
@<TRIPOS>SUBSTRUCTURE
     1 GHK         1 TEMP              0 ****  ****    0 ROOT
