@<TRIPOS>MOLECULE
GHL
   63    65     1     0     0
SMALL
bcc


@<TRIPOS>ATOM
      1 C01         35.7880   -42.5670    30.3890 c3         1 GHL      -0.085100
      2 C02         36.5720   -42.1620    29.1420 c3         1 GHL      -0.015100
      3 C03         36.4680   -40.6940    28.8540 cc         1 GHL      -0.045300
      4 C04         37.3260   -39.7290    29.3370 cd         1 GHL      -0.173800
      5 C05         38.5180   -39.7990    30.1670 cd         1 GHL       0.491800
      6 C06         39.0540   -38.7510    30.8540 cc         1 GHL      -0.253400
      7 C08         40.2430   -40.8590    31.0530 cc         1 GHL       0.714300
      8 C10         42.3780   -41.5810    31.9400 c6         1 GHL       0.215800
      9 C11         43.0290   -42.8290    32.5000 c6         1 GHL       0.148800
     10 C13         41.6560   -44.2520    31.2210 c6         1 GHL       0.153800
     11 C14         40.9080   -43.0860    30.5780 c6         1 GHL       0.148500
     12 C15         41.3510   -42.8540    29.1270 c          1 GHL       0.666100
     13 C18         41.0760   -43.7220    26.8290 c3         1 GHL       0.109000
     14 C19         39.9540   -43.1200    25.9680 c3         1 GHL      -0.068000
     15 C20         38.6560   -43.9020    26.1710 c3         1 GHL      -0.085100
     16 C21         39.7300   -41.6500    26.3180 c3         1 GHL      -0.085100
     17 C22         40.3910   -43.2370    24.5070 c3         1 GHL      -0.085100
     18 C25         35.7140   -38.6320    28.2260 cd         1 GHL      -0.022600
     19 C26         35.0370   -37.4310    27.6670 c3         1 GHL      -0.031800
     20 C27         35.4280   -39.9970    28.1470 cc         1 GHL      -0.263600
     21 C28         34.2520   -40.4910    27.4330 c          1 GHL       0.613700
     22 C29         34.0680   -41.9700    27.2050 c3         1 GHL      -0.190100
     23 N09         41.0730   -41.8820    31.3660 nh         1 GHL      -0.735300
     24 N12         43.0220   -43.8720    31.4950 n7         1 GHL      -0.790200
     25 N17         40.8120   -43.7170    28.2500 ns         1 GHL      -0.568900
     26 N23         39.2020   -40.9800    30.2870 nd         1 GHL      -0.735000
     27 N24         36.8410   -38.5070    28.9380 na         1 GHL      -0.145100
     28 O16         42.1330   -41.9690    28.8230 o          1 GHL      -0.591100
     29 O30         33.4160   -39.7120    27.0000 o          1 GHL      -0.564100
     30 S07         40.4880   -39.2490    31.6760 ss         1 GHL      -0.219300
     31 H1          35.8620   -43.6420    30.5640 hc         1 GHL       0.032367
     32 H2          36.1750   -42.0570    31.2720 hc         1 GHL       0.032367
     33 H3          34.7300   -42.3160    30.3020 hc         1 GHL       0.032367
     34 H4          36.2300   -42.7440    28.2880 hc         1 GHL       0.053200
     35 H5          37.6180   -42.4260    29.2820 hc         1 GHL       0.053200
     36 H6          38.7030   -37.7350    30.9420 h4         1 GHL       0.170000
     37 H7          43.0310   -41.1180    31.1940 h1         1 GHL       0.062700
     38 H8          44.0550   -42.5850    32.7760 h1         1 GHL       0.042200
     39 H9          41.1050   -44.5440    32.1290 h1         1 GHL       0.043200
     40 H10         41.6340   -45.1070    30.5440 h1         1 GHL       0.043200
     41 H11         39.8460   -43.3450    30.5770 h1         1 GHL       0.086700
     42 H12         41.2430   -44.7580    26.5190 h1         1 GHL       0.054200
     43 H13         42.0070   -43.1830    26.6510 h1         1 GHL       0.054200
     44 H14         38.2920   -43.8260    27.1970 hc         1 GHL       0.035700
     45 H15         37.8690   -43.5170    25.5200 hc         1 GHL       0.035700
     46 H16         38.7900   -44.9610    25.9380 hc         1 GHL       0.035700
     47 H17         39.4130   -41.5240    27.3550 hc         1 GHL       0.035700
     48 H18         40.6380   -41.0620    26.1720 hc         1 GHL       0.035700
     49 H19         38.9500   -41.2220    25.6850 hc         1 GHL       0.035700
     50 H20         40.5510   -44.2790    24.2220 hc         1 GHL       0.035700
     51 H21         39.6310   -42.8250    23.8410 hc         1 GHL       0.035700
     52 H22         41.3210   -42.6940    24.3240 hc         1 GHL       0.035700
     53 H23         34.0550   -37.2790    28.1150 hc         1 GHL       0.056033
     54 H24         35.6330   -36.5380    27.8530 hc         1 GHL       0.056033
     55 H25         34.8870   -37.5210    26.5930 hc         1 GHL       0.056033
     56 H26         33.1620   -42.1430    26.6280 hc         1 GHL       0.057033
     57 H27         34.9140   -42.3910    26.6610 hc         1 GHL       0.057033
     58 H28         33.9860   -42.5120    28.1470 hc         1 GHL       0.057033
     59 H29         43.5400   -44.6750    31.8260 hn         1 GHL       0.363800
     60 H30         40.1500   -44.3930    28.5970 hn         1 GHL       0.305500
     61 H31         37.3010   -37.6230    29.1000 hn         1 GHL       0.296700
     62 H32         42.2480   -40.8710    32.7600 h1         1 GHL       0.062700
     63 H33         42.5020   -43.1300    33.4190 h1         1 GHL       0.042200
@<TRIPOS>BOND
     1     1     2 1   
     2     1    31 1   
     3     1    32 1   
     4     1    33 1   
     5     2     3 1   
     6     2    34 1   
     7     2    35 1   
     8     3     4 2   
     9     3    20 1   
    10     4     5 1   
    11     4    27 1   
    12     5     6 2   
    13     5    26 1   
    14     6    30 1   
    15     6    36 1   
    16     7    23 1   
    17     7    26 2   
    18     7    30 1   
    19     8     9 1   
    20     8    23 1   
    21     8    37 1   
    22     8    62 1   
    23     9    24 1   
    24     9    38 1   
    25     9    63 1   
    26    10    11 1   
    27    10    24 1   
    28    10    39 1   
    29    10    40 1   
    30    11    12 1   
    31    11    23 1   
    32    11    41 1   
    33    12    25 1   
    34    12    28 2   
    35    13    14 1   
    36    13    25 1   
    37    13    42 1   
    38    13    43 1   
    39    14    15 1   
    40    14    16 1   
    41    14    17 1   
    42    15    44 1   
    43    15    45 1   
    44    15    46 1   
    45    16    47 1   
    46    16    48 1   
    47    16    49 1   
    48    17    50 1   
    49    17    51 1   
    50    17    52 1   
    51    18    19 1   
    52    18    20 2   
    53    18    27 1   
    54    19    53 1   
    55    19    54 1   
    56    19    55 1   
    57    20    21 1   
    58    21    22 1   
    59    21    29 2   
    60    22    56 1   
    61    22    57 1   
    62    22    58 1   
    63    24    59 1   
    64    25    60 1   
    65    27    61 1   
@<TRIPOS>SUBSTRUCTURE
     1 GHL         1 TEMP              0 ****  ****    0 ROOT
