@<TRIPOS>MOLECULE
GHL
   63    65     1     0     0
SMALL
No Charge or Current Charge


@<TRIPOS>ATOM
      1 C01         35.4360   -41.8140    29.7490 c3         1 GHL      -0.085100
      2 C02         35.9060   -40.7850    28.7000 c3         1 GHL      -0.015100
      3 C03         35.8560   -39.3500    29.2000 cc         1 GHL      -0.045300
      4 C04         36.8420   -38.6870    29.9100 cd         1 GHL      -0.224500
      5 C05         38.1180   -39.2040    30.3720 cd         1 GHL       0.426500
      6 C06         38.9650   -38.3570    31.0560 cc         1 GHL      -0.315000
      7 C08         39.7740   -40.6200    30.7470 cc         1 GHL       0.714300
      8 C10         41.8190   -41.9940    31.3010 c6         1 GHL       0.215800
      9 C11         42.0480   -43.4300    31.8770 c6         1 GHL       0.148800
     10 C13         40.2900   -44.3290    30.4230 c6         1 GHL       0.153800
     11 C14         40.0610   -42.9310    29.7530 c6         1 GHL       0.148500
     12 C15         40.7400   -42.8140    28.3430 c          1 GHL       0.599100
     13 C18         42.3970   -43.8880    26.7520 c3         1 GHL       0.109000
     14 C19         41.8000   -44.9750    25.8070 c3         1 GHL      -0.068000
     15 C20         41.8420   -46.3670    26.4940 c3         1 GHL      -0.085100
     16 C21         40.3330   -44.6320    25.4300 c3         1 GHL      -0.085100
     17 C22         42.6520   -45.0250    24.5130 c3         1 GHL      -0.085100
     18 C25         35.1440   -37.2060    29.6130 cd         1 GHL      -0.073300
     19 C26         34.4210   -35.8840    29.7360 c3         1 GHL      -0.031800
     20 C27         34.7720   -38.4060    29.0270 cc         1 GHL      -0.263600
     21 C28         33.4260   -38.5740    28.3530 c          1 GHL       0.613700
     22 C29         32.9800   -39.8910    27.7180 c3         1 GHL      -0.190100
     23 N09         40.4460   -41.8280    30.7220 nh         1 GHL      -0.735300
     24 N12         41.6800   -44.5140    30.9230 n7         1 GHL      -0.845400
     25 N17         41.6910   -43.7670    28.0310 ns         1 GHL      -0.501900
     26 N23         38.5800   -40.4940    30.2050 nd         1 GHL      -0.735000
     27 N24         36.4130   -37.3840    30.1470 na         1 GHL      -0.094000
     28 O16         40.4680   -41.9090    27.5610 o          1 GHL      -0.591100
     29 O30         32.6260   -37.6470    28.2920 o          1 GHL      -0.564100
     30 S07         40.4220   -39.1860    31.5160 ss         1 GHL      -0.074400
     31 H1          35.4510   -42.8260    29.3260 hc         1 GHL       0.032367
     32 H2          36.0940   -41.8010    30.6260 hc         1 GHL       0.032367
     33 H3          34.4180   -41.5960    30.0910 hc         1 GHL       0.032367
     34 H4          35.3490   -40.9160    27.7730 hc         1 GHL       0.053200
     35 H5          36.9240   -41.0390    28.3910 hc         1 GHL       0.053200
     36 H6          38.8400   -37.3170    31.3190 h4         1 GHL       0.152000
     37 H7          42.5730   -41.8020    30.5240 h1         1 GHL       0.062700
     38 H8          43.1020   -43.5410    32.1720 h1         1 GHL       0.042200
     39 H9          39.5930   -44.4270    31.2690 h1         1 GHL       0.043200
     40 H10         40.0400   -45.1290    29.7110 h1         1 GHL       0.043200
     41 H11         38.9860   -42.8840    29.5300 h1         1 GHL       0.086700
     42 H12         43.4440   -44.1350    26.9690 h1         1 GHL       0.054200
     43 H13         42.3930   -42.9160    26.2410 h1         1 GHL       0.054200
     44 H14         41.2130   -46.3890    27.3930 hc         1 GHL       0.035700
     45 H15         41.4780   -47.1490    25.8150 hc         1 GHL       0.035700
     46 H16         42.8650   -46.6270    26.7900 hc         1 GHL       0.035700
     47 H17         39.6800   -44.6460    26.3110 hc         1 GHL       0.035700
     48 H18         40.2690   -43.6370    24.9740 hc         1 GHL       0.035700
     49 H19         39.9340   -45.3590    24.7110 hc         1 GHL       0.035700
     50 H20         43.6970   -45.2740    24.7400 hc         1 GHL       0.035700
     51 H21         42.2690   -45.7820    23.8180 hc         1 GHL       0.035700
     52 H22         42.6400   -44.0570    23.9980 hc         1 GHL       0.035700
     53 H23         33.4790   -35.9980    30.2860 hc         1 GHL       0.056033
     54 H24         35.0240   -35.1420    30.2720 hc         1 GHL       0.056033
     55 H25         34.1910   -35.4660    28.7490 hc         1 GHL       0.056033
     56 H26         31.9270   -39.8660    27.4160 hc         1 GHL       0.057033
     57 H27         33.6060   -40.0880    26.8420 hc         1 GHL       0.057033
     58 H28         33.1720   -40.7270    28.3940 hc         1 GHL       0.057033
     59 H29         41.7460   -45.4190    31.4100 hn         1 GHL       0.419000
     60 H30         41.9210   -44.4150    28.7800 hn         1 GHL       0.305500
     61 H31         36.9380   -36.6720    30.6440 hn         1 GHL       0.347000
     62 H32         42.0060   -41.2770    32.1130 h1         1 GHL       0.062700
     63 H33         41.4420   -43.5380    32.7890 h1         1 GHL       0.042200
@<TRIPOS>BOND
     1     1     2 1   
     2     1    31 1   
     3     1    32 1   
     4     1    33 1   
     5     2     3 1   
     6     2    34 1   
     7     2    35 1   
     8     3     4 2   
     9     3    20 1   
    10     4     5 1   
    11     4    27 1   
    12     5     6 2   
    13     5    26 1   
    14     6    30 1   
    15     6    36 1   
    16     7    23 1   
    17     7    26 2   
    18     7    30 1   
    19     8     9 1   
    20     8    23 1   
    21     8    37 1   
    22     8    62 1   
    23     9    24 1   
    24     9    38 1   
    25     9    63 1   
    26    10    11 1   
    27    10    24 1   
    28    10    39 1   
    29    10    40 1   
    30    11    12 1   
    31    11    23 1   
    32    11    41 1   
    33    12    25 1   
    34    12    28 2   
    35    13    14 1   
    36    13    25 1   
    37    13    42 1   
    38    13    43 1   
    39    14    15 1   
    40    14    16 1   
    41    14    17 1   
    42    15    44 1   
    43    15    45 1   
    44    15    46 1   
    45    16    47 1   
    46    16    48 1   
    47    16    49 1   
    48    17    50 1   
    49    17    51 1   
    50    17    52 1   
    51    18    19 1   
    52    18    20 2   
    53    18    27 1   
    54    19    53 1   
    55    19    54 1   
    56    19    55 1   
    57    20    21 1   
    58    21    22 1   
    59    21    29 2   
    60    22    56 1   
    61    22    57 1   
    62    22    58 1   
    63    24    59 1   
    64    25    60 1   
    65    27    61 1   
@<TRIPOS>SUBSTRUCTURE
     1 GHL         1 TEMP              0 ****  ****    0 ROOT
