@<TRIPOS>MOLECULE
GHM
   18    18     1     0     0
SMALL
bcc


@<TRIPOS>ATOM
      1 C4           0.0210     1.8240     0.0880 ca         1 GHM      -0.179000
      2 C5           0.9570     0.7910     0.0720 ca         1 GHM      -0.108600
      3 C6           2.4290     1.1340     0.1990 c          1 GHM       0.948200
      4 C7           0.5010    -0.5270     0.0190 ca         1 GHM      -0.127600
      5 C8           1.4600    -1.6960    -0.1200 c          1 GHM       0.951200
      6 C9          -0.8680    -0.7760     0.0090 ca         1 GHM      -0.104000
      7 C3          -1.3410     1.5630     0.0700 ca         1 GHM      -0.160000
      8 C1          -3.3000    -0.0500    -0.0130 c          1 GHM       0.926200
      9 C2          -1.8100     0.2500     0.0240 ca         1 GHM      -0.190600
     10 O1          -3.6310    -1.2600    -0.0930 o          1 GHM      -0.885800
     11 O2          -4.0860     0.9170     0.0050 o          1 GHM      -0.885800
     12 O3           3.0640     0.5110     1.0710 o          1 GHM      -0.870300
     13 O4           2.8720     2.0060    -0.5760 o          1 GHM      -0.870300
     14 O5           2.3180    -1.5980    -1.0180 o          1 GHM      -0.869300
     15 O6           1.2930    -2.6610     0.6550 o          1 GHM      -0.869300
     16 H1           0.3640     2.8510     0.1290 ha         1 GHM       0.082000
     17 H2          -1.2150    -1.8010    -0.0250 ha         1 GHM       0.126000
     18 H3          -2.0480     2.3820     0.0920 ha         1 GHM       0.088000
@<TRIPOS>BOND
     1     1     2 ar  
     2     1     7 ar  
     3     1    16 1   
     4     2     3 1   
     5     2     4 ar  
     6     3    12 1   
     7     3    13 1   
     8     4     5 1   
     9     4     6 ar  
    10     5    14 1   
    11     5    15 1   
    12     6     9 ar  
    13     6    17 1   
    14     7     9 ar  
    15     7    18 1   
    16     8     9 1   
    17     8    10 1   
    18     8    11 1   
@<TRIPOS>SUBSTRUCTURE
     1 GHM         1 TEMP              0 ****  ****    0 ROOT
