@<TRIPOS>MOLECULE
GHM
   18    18     1     0     0
SMALL
No Charge or Current Charge


@<TRIPOS>ATOM
      1 C4           0.0230     1.8470     0.1240 ca         1 GHM      -0.161000
      2 C5           0.9700     0.8010     0.0860 ca         1 GHM      -0.108600
      3 C6           2.4500     1.1230     0.1690 c          1 GHM       0.737600
      4 C7           0.5110    -0.5390    -0.0030 ca         1 GHM      -0.127600
      5 C8           1.4810    -1.6960    -0.0910 c          1 GHM       0.740600
      6 C9          -0.8780    -0.7990    -0.0330 ca         1 GHM      -0.086000
      7 C3          -1.3540     1.5770     0.0860 ca         1 GHM      -0.142000
      8 C1          -3.3230    -0.0560    -0.0290 c          1 GHM       0.715600
      9 C2          -1.8290     0.2480     0.0100 ca         1 GHM      -0.190600
     10 O1          -3.6850    -1.2190    -0.1260 o          1 GHM      -0.780500
     11 O2          -4.1170     0.8720     0.0370 o          1 GHM      -0.780500
     12 O3           3.0950     0.6550     1.0980 o          1 GHM      -0.765000
     13 O4           2.9140     1.9320    -0.6240 o          1 GHM      -0.765000
     14 O5           2.2750    -1.7170    -1.0220 o          1 GHM      -0.764000
     15 O6           1.3480    -2.6250     0.6940 o          1 GHM      -0.764000
     16 H1           0.3620     2.8780     0.1940 ha         1 GHM       0.064000
     17 H2          -1.2120    -1.8320    -0.1020 ha         1 GHM       0.108000
     18 H3          -2.0520     2.4100     0.1200 ha         1 GHM       0.070000
@<TRIPOS>BOND
     1     1     2 ar  
     2     1     7 ar  
     3     1    16 1   
     4     2     3 1   
     5     2     4 ar  
     6     3    12 1   
     7     3    13 1   
     8     4     5 1   
     9     4     6 ar  
    10     5    14 1   
    11     5    15 1   
    12     6     9 ar  
    13     6    17 1   
    14     7     9 ar  
    15     7    18 1   
    16     8     9 1   
    17     8    10 1   
    18     8    11 1   
@<TRIPOS>SUBSTRUCTURE
     1 GHM         1 TEMP              0 ****  ****    0 ROOT
