@<TRIPOS>MOLECULE
GHN
   44    45     1     0     0
SMALL
bcc


@<TRIPOS>ATOM
      1 C4          -5.2680     0.8330    -0.9760 c3         1 GHN      -0.178700
      2 C14          4.6060    -0.0960    -0.2430 c3         1 GHN       0.205800
      3 C5          -4.0330     1.0100    -0.1670 cc         1 GHN       0.432700
      4 C6          -1.9880     0.6430     0.5740 cd         1 GHN       0.392800
      5 C11          1.6920    -1.4860     0.4260 ca         1 GHN      -0.315500
      6 C7          -2.3240     1.6730     1.4060 cc         1 GHN      -0.189400
      7 C8          -0.7120    -0.0790     0.5410 ca         1 GHN      -0.054500
      8 C9           0.3250     0.2060     1.4250 ca         1 GHN      -0.129500
      9 C10          1.5190    -0.4920     1.3800 ca         1 GHN      -0.039000
     10 C12          0.6720    -1.7910    -0.4660 ca         1 GHN      -0.039000
     11 C13         -0.5200    -1.0930    -0.4030 ca         1 GHN      -0.129500
     12 N1          -2.9730     0.2890    -0.3070 nd         1 GHN      -0.632000
     13 N2           4.2030    -1.4290    -0.6690 n7         1 GHN      -0.813100
     14 C3          -6.3400     0.0810    -0.2160 c          1 GHN       0.646100
     15 C1          -9.5590    -0.9860    -1.4840 c3         1 GHN      -0.098100
     16 O1          -7.3760    -0.1750    -0.9980 os         1 GHN      -0.425900
     17 O2          -6.2620    -0.2330     0.9410 o          1 GHN      -0.522000
     18 S1          -3.9100     2.2040     1.0730 ss         1 GHN      -0.112300
     19 O3           3.8500    -2.3170     1.6350 o          1 GHN      -0.600300
     20 O4           3.0180    -3.5860    -0.3870 o          1 GHN      -0.600300
     21 C15          5.7850     0.3410    -1.1040 c3         1 GHN      -0.158400
     22 C16          6.3290     1.6900    -0.7140 c3         1 GHN       0.665900
     23 F1           6.7820     1.7070     0.5470 f          1 GHN      -0.236967
     24 F2           7.3490     2.0520    -1.5020 f          1 GHN      -0.236967
     25 F3           5.4030     2.6560    -0.8040 f          1 GHN      -0.236967
     26 H1          -5.6750     1.7950    -1.3000 hc         1 GHN       0.095700
     27 H2          -5.0150     0.2840    -1.8850 hc         1 GHN       0.095700
     28 H3           3.7840     0.6220    -0.3230 h1         1 GHN       0.066200
     29 H4           4.9060    -0.1490     0.8030 h1         1 GHN       0.066200
     30 H5          -1.7330     2.1410     2.1760 h4         1 GHN       0.183000
     31 H6           0.2150     0.9760     2.1770 ha         1 GHN       0.147500
     32 H7           2.2970    -0.2630     2.0950 ha         1 GHN       0.153500
     33 H8           0.7940    -2.5760    -1.2000 ha         1 GHN       0.153500
     34 H9          -1.3170    -1.3370    -1.0910 ha         1 GHN       0.147500
     35 H10          3.8860    -1.4740    -1.6310 hn         1 GHN       0.422800
     36 H11        -10.4200    -1.5140    -1.0730 hc         1 GHN       0.048367
     37 H12         -9.8970    -0.0080    -1.8240 hc         1 GHN       0.048367
     38 H13         -9.2050    -1.5500    -2.3460 hc         1 GHN       0.048367
     39 H14         -8.8620    -0.3150     0.4450 h1         1 GHN       0.050700
     40 H15         -8.1740    -1.8530    -0.0760 h1         1 GHN       0.050700
     41 H16          6.5880    -0.3940    -1.0250 hc         1 GHN       0.089700
     42 H17          5.4880     0.3890    -2.1540 hc         1 GHN       0.089700
     43 S2           3.2400    -2.3410     0.3200 sy         1 GHN       1.302200
     44 C2          -8.4940    -0.8680    -0.4210 c3         1 GHN       0.143400
@<TRIPOS>BOND
     1     1     3 1   
     2     1    14 1   
     3     1    26 1   
     4     1    27 1   
     5     2    13 1   
     6     2    21 1   
     7     2    28 1   
     8     2    29 1   
     9     3    12 2   
    10     3    18 1   
    11     4     6 2   
    12     4     7 1   
    13     4    12 1   
    14     5     9 ar  
    15     5    10 ar  
    16     5    43 1   
    17     6    18 1   
    18     6    30 1   
    19     7     8 ar  
    20     7    11 ar  
    21     8     9 ar  
    22     8    31 1   
    23     9    32 1   
    24    10    11 ar  
    25    10    33 1   
    26    11    34 1   
    27    13    35 1   
    28    13    43 1   
    29    14    16 1   
    30    14    17 2   
    31    15    36 1   
    32    15    37 1   
    33    15    38 1   
    34    15    44 1   
    35    16    44 1   
    36    19    43 2   
    37    20    43 2   
    38    21    22 1   
    39    21    41 1   
    40    21    42 1   
    41    22    23 1   
    42    22    24 1   
    43    22    25 1   
    44    39    44 1   
    45    40    44 1   
@<TRIPOS>SUBSTRUCTURE
     1 GHN         1 TEMP              0 ****  ****    0 ROOT
