@<TRIPOS>MOLECULE
GHN
   44    45     1     0     0
SMALL
No Charge or Current Charge


@<TRIPOS>ATOM
      1 C4          -5.7660     1.7140    -0.8190 c3         1 GHN      -0.178700
      2 C14          5.0880    -0.7370    -0.3740 c3         1 GHN       0.205800
      3 C5          -4.5820     1.6690     0.0850 cc         1 GHN       0.432700
      4 C6          -2.5620     1.1050     0.8280 cd         1 GHN       0.327500
      5 C11          1.2330    -0.9650     0.6390 ca         1 GHN      -0.315500
      6 C7          -2.9580     1.9470     1.8460 cc         1 GHN      -0.251000
      7 C8          -1.2590     0.3960     0.7650 ca         1 GHN      -0.054500
      8 C9          -0.2960     0.5470     1.7900 ca         1 GHN      -0.111500
      9 C10          0.9370    -0.1240     1.7300 ca         1 GHN      -0.021000
     10 C12          0.2850    -1.1230    -0.3900 ca         1 GHN      -0.021000
     11 C13         -0.9470    -0.4490    -0.3250 ca         1 GHN      -0.111500
     12 N1          -3.5020     0.9510    -0.1850 nd         1 GHN      -0.632000
     13 N2           3.6220    -0.7700    -0.4590 n7         1 GHN      -0.868300
     14 C3          -6.8560     0.7870    -0.3240 c          1 GHN       0.597100
     15 C1          -7.8440    -2.4740    -1.7390 c3         1 GHN      -0.098100
     16 O1          -6.9550    -0.3440    -1.0910 os         1 GHN      -0.449100
     17 O2          -7.5600     1.0300     0.6460 o          1 GHN      -0.473000
     18 S1          -4.5490     2.5900     1.5650 ss         1 GHN       0.032600
     19 O3           3.4810    -1.7620     1.8480 o          1 GHN      -0.529500
     20 O4           2.6480    -3.0640    -0.2150 o          1 GHN      -0.529500
     21 C15          5.6280     0.2700    -1.4050 c3         1 GHN      -0.158400
     22 C16          7.1660     0.3690    -1.4280 c3         1 GHN       0.302000
     23 F1           7.7280    -0.8220    -1.7350 f          1 GHN      -0.115667
     24 F2           7.5710     1.2690    -2.3530 f          1 GHN      -0.115667
     25 F3           7.6480     0.7640    -0.2270 f          1 GHN      -0.115667
     26 H1          -6.1570     2.7360    -0.8410 hc         1 GHN       0.095700
     27 H2          -5.4590     1.4150    -1.8270 hc         1 GHN       0.095700
     28 H3           5.4220    -0.4430     0.6330 h1         1 GHN       0.066200
     29 H4           5.5080    -1.7300    -0.5880 h1         1 GHN       0.066200
     30 H5          -2.4270     2.2360     2.7410 h4         1 GHN       0.165000
     31 H6          -0.4910     1.1870     2.6460 ha         1 GHN       0.129500
     32 H7           1.6570     0.0140     2.5360 ha         1 GHN       0.135500
     33 H8           0.4980    -1.7640    -1.2440 ha         1 GHN       0.135500
     34 H9          -1.6590    -0.5910    -1.1340 ha         1 GHN       0.129500
     35 H10          3.2270     0.1250    -0.1780 hn         1 GHN       0.478000
     36 H11         -8.5850    -3.2480    -1.5070 hc         1 GHN       0.048367
     37 H12         -8.0290    -2.1160    -2.7590 hc         1 GHN       0.048367
     38 H13         -6.8480    -2.9300    -1.7020 hc         1 GHN       0.048367
     39 H14         -8.9580    -0.8850    -0.7750 h1         1 GHN       0.050700
     40 H15         -7.7760    -1.7000     0.2830 h1         1 GHN       0.050700
     41 H16          5.2790    -0.0180    -2.4030 hc         1 GHN       0.089700
     42 H17          5.2150     1.2640    -1.1950 hc         1 GHN       0.089700
     43 S2           2.8100    -1.8230     0.5470 sy         1 GHN       1.160600
     44 C2          -7.9490    -1.3180    -0.7320 c3         1 GHN       0.166600
@<TRIPOS>BOND
     1     1     3 1   
     2     1    14 1   
     3     1    26 1   
     4     1    27 1   
     5     2    13 1   
     6     2    21 1   
     7     2    28 1   
     8     2    29 1   
     9     3    12 2   
    10     3    18 1   
    11     4     6 2   
    12     4     7 1   
    13     4    12 1   
    14     5     9 ar  
    15     5    10 ar  
    16     5    43 1   
    17     6    18 1   
    18     6    30 1   
    19     7     8 ar  
    20     7    11 ar  
    21     8     9 ar  
    22     8    31 1   
    23     9    32 1   
    24    10    11 ar  
    25    10    33 1   
    26    11    34 1   
    27    13    35 1   
    28    13    43 1   
    29    14    16 1   
    30    14    17 2   
    31    15    36 1   
    32    15    37 1   
    33    15    38 1   
    34    15    44 1   
    35    16    44 1   
    36    19    43 2   
    37    20    43 2   
    38    21    22 1   
    39    21    41 1   
    40    21    42 1   
    41    22    23 1   
    42    22    24 1   
    43    22    25 1   
    44    39    44 1   
    45    40    44 1   
@<TRIPOS>SUBSTRUCTURE
     1 GHN         1 TEMP              0 ****  ****    0 ROOT
