@<TRIPOS>MOLECULE
GHO
   12    11     1     0     0
SMALL
No Charge or Current Charge


@<TRIPOS>ATOM
      1 C01         25.6950   183.9210    -8.7650 c3         1 GHO      -0.084700
      2 C02         26.1100   182.4570    -9.0550 c3         1 GHO      -0.090100
      3 O03         25.3700   184.0440    -7.3460 oh         1 GHO      -0.614000
      4 S04         24.3330   184.5270    -9.9190 s6         1 GHO       1.325600
      5 H1          26.5440   184.5780    -8.9790 h2         1 GHO       0.038700
      6 H2          26.9470   182.1570    -8.4120 hc         1 GHO       0.029033
      7 H3          25.2760   181.7680    -8.8770 hc         1 GHO       0.029033
      8 H4          26.4330   182.3430   -10.0960 hc         1 GHO       0.029033
      9 H5          26.1540   183.7510    -6.8340 ho         1 GHO       0.400000
     10 O05         23.1890   183.6380    -9.6490 o          1 GHO      -0.687867
     11 O06         24.9080   184.3750   -11.2660 o          1 GHO      -0.687867
     12 O07         24.1120   185.9290    -9.5200 o          1 GHO      -0.687867
@<TRIPOS>BOND
     1     1     2 1   
     2     1     3 1   
     3     1     4 1   
     4     1     5 1   
     5     2     6 1   
     6     2     7 1   
     7     2     8 1   
     8     3     9 1   
     9     4    10 1   
    10     4    11 1   
    11     4    12 1   
@<TRIPOS>SUBSTRUCTURE
     1 GHO         1 TEMP              0 ****  ****    0 ROOT
