@<TRIPOS>MOLECULE
GHO
   12    11     1     0     0
SMALL
abcg2


@<TRIPOS>ATOM
      1 C01         25.7370   183.9070    -8.7720 c3         1 GHO      -0.084700
      2 C02         26.1160   182.4730    -9.0850 c3         1 GHO      -0.090100
      3 O03         25.2930   184.0740    -7.4510 oh         1 GHO      -0.614000
      4 S04         24.3800   184.4910    -9.8420 s6         1 GHO       1.325600
      5 H1          26.5850   184.5670    -9.0010 h2         1 GHO       0.038700
      6 H2          26.9360   182.1550    -8.4390 hc         1 GHO       0.029033
      7 H3          25.2770   181.7970    -8.9250 hc         1 GHO       0.029033
      8 H4          26.4550   182.3700   -10.1150 hc         1 GHO       0.029033
      9 H5          26.0030   183.8010    -6.8610 ho         1 GHO       0.400000
     10 O05         23.2190   183.6350    -9.5310 o          1 GHO      -0.687867
     11 O06         24.8960   184.3110   -11.2140 o          1 GHO      -0.687867
     12 O07         24.1740   185.9060    -9.4810 o          1 GHO      -0.687867
@<TRIPOS>BOND
     1     1     2 1   
     2     1     3 1   
     3     1     4 1   
     4     1     5 1   
     5     2     6 1   
     6     2     7 1   
     7     2     8 1   
     8     3     9 1   
     9     4    10 1   
    10     4    11 1   
    11     4    12 1   
@<TRIPOS>SUBSTRUCTURE
     1 GHO         1 TEMP              0 ****  ****    0 ROOT
