@<TRIPOS>MOLECULE
GHP
   20    20     1     0     0
SMALL
No Charge or Current Charge


@<TRIPOS>ATOM
      1 N           14.6970    21.8180    20.4590 n8         1 GHP      -0.882800
      2 CA          15.2000    20.9550    19.3240 c3         1 GHP       0.048800
      3 C           14.2730    19.7570    18.8270 c          1 GHP       0.941600
      4 O           13.0650    19.9460    18.6940 o          1 GHP      -0.824800
      5 OXT         14.7910    18.6620    18.6150 o          1 GHP      -0.824800
      6 C1          15.6220    21.8430    18.1490 ca         1 GHP      -0.078300
      7 C2          16.9770    21.9060    17.7610 ca         1 GHP      -0.092500
      8 C3          17.3690    22.7190    16.6830 ca         1 GHP      -0.196500
      9 C4          16.4150    23.4740    15.9870 ca         1 GHP       0.093100
     10 O4          16.8020    24.2580    14.9440 oh         1 GHP      -0.515100
     11 C5          15.0650    23.4190    16.3650 ca         1 GHP      -0.196500
     12 C6          14.6690    22.6070    17.4430 ca         1 GHP      -0.092500
     13 H           15.3660    22.5770    20.6230 hn         1 GHP       0.328800
     14 H2          13.8390    22.2910    20.1570 hn         1 GHP       0.328800
     15 HA          16.1060    20.4660    19.7050 h1         1 GHP       0.055700
     16 HC2         17.7270    21.3250    18.2950 ha         1 GHP       0.132500
     17 H3          18.4150    22.7630    16.3890 ha         1 GHP       0.116500
     18 HO4         16.0080    24.7050    14.5830 ho         1 GHP       0.407000
     19 H5          14.3190    24.0020    15.8290 ha         1 GHP       0.116500
     20 H6          13.6190    22.5710    17.7290 ha         1 GHP       0.132500
@<TRIPOS>BOND
     1     1     2 1   
     2     1    13 1   
     3     1    14 1   
     4     2     3 1   
     5     2     6 1   
     6     2    15 1   
     7     3     4 1   
     8     3     5 1   
     9     6     7 ar  
    10     6    12 ar  
    11     7     8 ar  
    12     7    16 1   
    13     8     9 ar  
    14     8    17 1   
    15     9    10 1   
    16     9    11 ar  
    17    10    18 1   
    18    11    12 ar  
    19    11    19 1   
    20    12    20 1   
@<TRIPOS>SUBSTRUCTURE
     1 GHP         1 TEMP              0 ****  ****    0 ROOT
