@<TRIPOS>MOLECULE
GHP
   20    20     1     0     0
SMALL
bcc


@<TRIPOS>ATOM
      1 N           14.3300    21.7300    20.3600 n8         1 GHP      -0.882800
      2 CA          15.2340    21.0940    19.4230 c3         1 GHP       0.048800
      3 C           14.5920    19.8010    18.8380 c          1 GHP       0.941600
      4 O           13.3480    19.7830    18.7650 o          1 GHP      -0.824800
      5 OXT         15.3870    18.9260    18.4520 o          1 GHP      -0.824800
      6 C1          15.6550    21.9400    18.2370 ca         1 GHP      -0.078300
      7 C2          16.8890    21.7340    17.6190 ca         1 GHP      -0.092500
      8 C3          17.2710    22.4480    16.4950 ca         1 GHP      -0.196500
      9 C4          16.4100    23.3970    15.9490 ca         1 GHP       0.093100
     10 O4          16.8200    24.0640    14.8460 oh         1 GHP      -0.515100
     11 C5          15.1800    23.6230    16.5560 ca         1 GHP      -0.196500
     12 C6          14.8140    22.8990    17.6840 ca         1 GHP      -0.092500
     13 H           14.5750    22.7040    20.4920 hn         1 GHP       0.328800
     14 H2          13.3950    21.7030    19.9730 hn         1 GHP       0.328800
     15 HA          16.1440    20.7980    19.9560 h1         1 GHP       0.055700
     16 HC2         17.5730    21.0010    18.0300 ha         1 GHP       0.132500
     17 H3          18.2370    22.2710    16.0380 ha         1 GHP       0.116500
     18 HO4         16.1390    24.6830    14.5620 ho         1 GHP       0.407000
     19 H5          14.5000    24.3640    16.1480 ha         1 GHP       0.116500
     20 H6          13.8510    23.1020    18.1360 ha         1 GHP       0.132500
@<TRIPOS>BOND
     1     1     2 1   
     2     1    13 1   
     3     1    14 1   
     4     2     3 1   
     5     2     6 1   
     6     2    15 1   
     7     3     4 1   
     8     3     5 1   
     9     6     7 ar  
    10     6    12 ar  
    11     7     8 ar  
    12     7    16 1   
    13     8     9 ar  
    14     8    17 1   
    15     9    10 1   
    16     9    11 ar  
    17    10    18 1   
    18    11    12 ar  
    19    11    19 1   
    20    12    20 1   
@<TRIPOS>SUBSTRUCTURE
     1 GHP         1 TEMP              0 ****  ****    0 ROOT
