@<TRIPOS>MOLECULE
GHQ
   25    25     1     0     0
SMALL
No Charge or Current Charge


@<TRIPOS>ATOM
      1 C4           1.0190    -0.5780     0.0560 c          1 GHQ       0.611700
      2 C5           2.4490    -0.0740     0.0310 ca         1 GHQ      -0.153600
      3 C6           3.4420    -0.7690     0.7620 ca         1 GHQ      -0.072000
      4 C7           4.7770    -0.3300     0.7610 ca         1 GHQ      -0.118000
      5 C8           5.1430     0.8110     0.0320 ca         1 GHQ      -0.087000
      6 C9           4.1710     1.5130    -0.6980 ca         1 GHQ      -0.118000
      7 C10          2.8340     1.0770    -0.7010 ca         1 GHQ      -0.072000
      8 N1           0.0970     0.1370    -0.6800 ns         1 GHQ      -0.508900
      9 C3          -1.3320    -0.1750    -0.7620 c3         1 GHQ       0.112000
     10 F1          -3.8530    -1.2910     0.3510 f          1 GHQ      -0.117667
     11 C1          -3.6110     0.0360     0.4370 c3         1 GHQ       0.303000
     12 F2          -4.1900     0.6390    -0.6270 f          1 GHQ      -0.117667
     13 F3          -4.2150     0.4970     1.5550 f          1 GHQ      -0.117667
     14 C2          -2.0970     0.3240     0.4810 c3         1 GHQ      -0.178400
     15 O1           0.6890    -1.5700     0.6920 o          1 GHQ      -0.595100
     16 H1           3.1810    -1.6570     1.3350 ha         1 GHQ       0.122000
     17 H2           5.5280    -0.8760     1.3280 ha         1 GHQ       0.118500
     18 H3           6.1770     1.1510     0.0320 ha         1 GHQ       0.116000
     19 H4           4.4540     2.3980    -1.2640 ha         1 GHQ       0.118500
     20 H5           2.1120     1.6490    -1.2780 ha         1 GHQ       0.122000
     21 H6           0.4420     0.9410    -1.1870 hn         1 GHQ       0.321500
     22 H7          -1.7410     0.3010    -1.6640 h1         1 GHQ       0.066700
     23 H8          -1.4580    -1.2610    -0.8700 h1         1 GHQ       0.066700
     24 H9          -1.6770    -0.1460     1.3780 hc         1 GHQ       0.088200
     25 H10         -1.9450     1.4050     0.5880 hc         1 GHQ       0.088200
@<TRIPOS>BOND
     1     1     2 1   
     2     1     8 1   
     3     1    15 2   
     4     2     3 ar  
     5     2     7 ar  
     6     3     4 ar  
     7     3    16 1   
     8     4     5 ar  
     9     4    17 1   
    10     5     6 ar  
    11     5    18 1   
    12     6     7 ar  
    13     6    19 1   
    14     7    20 1   
    15     8     9 1   
    16     8    21 1   
    17     9    14 1   
    18     9    22 1   
    19     9    23 1   
    20    10    11 1   
    21    11    12 1   
    22    11    13 1   
    23    11    14 1   
    24    14    24 1   
    25    14    25 1   
@<TRIPOS>SUBSTRUCTURE
     1 GHQ         1 TEMP              0 ****  ****    0 ROOT
