@<TRIPOS>MOLECULE
GHQ
   25    25     1     0     0
SMALL
abcg2


@<TRIPOS>ATOM
      1 C4           1.0110    -0.5320     0.2110 c          1 GHQ       0.611700
      2 C5           2.4170    -0.0350     0.1110 ca         1 GHQ      -0.153600
      3 C6           3.4460    -0.8740     0.5350 ca         1 GHQ      -0.072000
      4 C7           4.7650    -0.4550     0.4620 ca         1 GHQ      -0.118000
      5 C8           5.0680     0.8140    -0.0150 ca         1 GHQ      -0.087000
      6 C9           4.0470     1.6630    -0.4180 ca         1 GHQ      -0.118000
      7 C10          2.7270     1.2400    -0.3590 ca         1 GHQ      -0.072000
      8 N1           0.1380    -0.0180    -0.6720 ns         1 GHQ      -0.508900
      9 C3          -1.2610    -0.3720    -0.6810 c3         1 GHQ       0.112000
     10 F1          -3.7870    -1.1640     0.5800 f          1 GHQ      -0.117667
     11 C1          -3.5200     0.1300     0.3390 c3         1 GHQ       0.303000
     12 F2          -4.0820     0.4190    -0.8470 f          1 GHQ      -0.117667
     13 F3          -4.1860     0.8390     1.2620 f          1 GHQ      -0.117667
     14 C2          -2.0470     0.4240     0.3630 c3         1 GHQ      -0.178400
     15 O1           0.6900    -1.3700     1.0440 o          1 GHQ      -0.595100
     16 H1           3.2120    -1.8600     0.9130 ha         1 GHQ       0.122000
     17 H2           5.5590    -1.1200     0.7790 ha         1 GHQ       0.118500
     18 H3           6.0980     1.1420    -0.0670 ha         1 GHQ       0.116000
     19 H4           4.2770     2.6580    -0.7750 ha         1 GHQ       0.118500
     20 H5           1.9440     1.9270    -0.6590 ha         1 GHQ       0.122000
     21 H6           0.4620     0.6130    -1.3860 hn         1 GHQ       0.321500
     22 H7          -1.6370    -0.1680    -1.6820 h1         1 GHQ       0.066700
     23 H8          -1.3630    -1.4430    -0.5050 h1         1 GHQ       0.066700
     24 H9          -1.6720     0.1990     1.3630 hc         1 GHQ       0.088200
     25 H10         -1.9090     1.4940     0.1930 hc         1 GHQ       0.088200
@<TRIPOS>BOND
     1     1     2 1   
     2     1     8 1   
     3     1    15 2   
     4     2     3 ar  
     5     2     7 ar  
     6     3     4 ar  
     7     3    16 1   
     8     4     5 ar  
     9     4    17 1   
    10     5     6 ar  
    11     5    18 1   
    12     6     7 ar  
    13     6    19 1   
    14     7    20 1   
    15     8     9 1   
    16     8    21 1   
    17     9    14 1   
    18     9    22 1   
    19     9    23 1   
    20    10    11 1   
    21    11    12 1   
    22    11    13 1   
    23    11    14 1   
    24    14    24 1   
    25    14    25 1   
@<TRIPOS>SUBSTRUCTURE
     1 GHQ         1 TEMP              0 ****  ****    0 ROOT
