@<TRIPOS>MOLECULE
GHR
   39    40     1     0     0
SMALL
bcc


@<TRIPOS>ATOM
      1 C1           2.4130    -0.6180    -0.3890 c2         1 GHR       0.570200
      2 N5           2.7310     0.6720    -0.1920 nu         1 GHR      -0.847200
      3 C5           3.9680     1.1230     0.4280 c6         1 GHR       0.232500
      4 C6           4.2340     2.5560     0.0010 c3         1 GHR       0.132400
      5 O6           3.1300     3.3370     0.4000 oh         1 GHR      -0.609800
      6 C4           5.1180     0.2000     0.0490 c6         1 GHR       0.143100
      7 O4           6.2290     0.5810     0.8130 oh         1 GHR      -0.593800
      8 C3           4.7240    -1.2470     0.3180 c6         1 GHR       0.114100
      9 O3           5.8430    -2.0460     0.0300 oh         1 GHR      -0.601800
     10 C2           3.5390    -1.6170    -0.5620 c6         1 GHR       0.090800
     11 O2           3.1430    -2.9230    -0.2640 oh         1 GHR      -0.591800
     12 N1           1.2430    -1.1190    -0.5580 n2         1 GHR      -0.498200
     13 C12         -5.9810     0.5420     0.2000 ca         1 GHR      -0.001600
     14 C11         -5.2940    -0.6010     0.5710 ca         1 GHR      -0.091500
     15 C10         -3.9170    -0.6710     0.4140 ca         1 GHR      -0.164000
     16 C13         -5.3010     1.6260    -0.3310 ca         1 GHR      -0.091500
     17 C14         -3.9290     1.5540    -0.4910 ca         1 GHR      -0.164000
     18 C9          -3.2190     0.4090    -0.1260 ca         1 GHR       0.093600
     19 N9          -1.8370     0.4420    -0.3100 ns         1 GHR      -0.477100
     20 C8          -0.9660    -0.5990    -0.2460 c          1 GHR       0.777100
     21 O8          -1.2300    -1.7500    -0.0190 o          1 GHR      -0.527000
     22 O7           0.2700    -0.1220    -0.4780 os         1 GHR      -0.235600
     23 H5           3.8620     1.0950     1.5220 h1         1 GHR       0.070700
     24 H6           5.1630     2.9020     0.4660 h1         1 GHR       0.043200
     25 H6A          4.3770     2.5800    -1.0870 h1         1 GHR       0.043200
     26 HO6          3.2010     4.2000    -0.0180 ho         1 GHR       0.415000
     27 H4           5.3190     0.3110    -1.0290 h1         1 GHR       0.052700
     28 HO4          6.9420    -0.0430     0.6320 ho         1 GHR       0.433000
     29 H3           4.4280    -1.3440     1.3740 h1         1 GHR       0.062700
     30 HO3          5.7350    -2.9040     0.4510 ho         1 GHR       0.433000
     31 H2           3.8600    -1.5290    -1.6130 h1         1 GHR       0.066700
     32 HO2          2.2600    -3.0610    -0.6270 ho         1 GHR       0.449000
     33 H10         -3.4090    -1.5700     0.7220 ha         1 GHR       0.151000
     34 H13         -5.8290     2.5230    -0.6250 ha         1 GHR       0.148500
     35 H14         -3.4060     2.4040    -0.9110 ha         1 GHR       0.151000
     36 HN9         -1.4540     1.3350    -0.5840 hn         1 GHR       0.329500
     37 H16          1.9660     1.3260    -0.1150 hn         1 GHR       0.457800
     38 H11         -5.8210    -1.4470     0.9900 ha         1 GHR       0.148500
     39 CL12        -7.7020     0.6190     0.4010 cl         1 GHR      -0.112400
@<TRIPOS>BOND
     1     1     2 1   
     2     1    10 1   
     3     1    12 2   
     4     2     3 1   
     5     2    37 1   
     6     3     4 1   
     7     3     6 1   
     8     3    23 1   
     9     4     5 1   
    10     4    24 1   
    11     4    25 1   
    12     5    26 1   
    13     6     7 1   
    14     6     8 1   
    15     6    27 1   
    16     7    28 1   
    17     8     9 1   
    18     8    10 1   
    19     8    29 1   
    20     9    30 1   
    21    10    11 1   
    22    10    31 1   
    23    11    32 1   
    24    12    22 1   
    25    13    14 ar  
    26    13    16 ar  
    27    13    39 1   
    28    14    15 ar  
    29    14    38 1   
    30    15    18 ar  
    31    15    33 1   
    32    16    17 ar  
    33    16    34 1   
    34    17    18 ar  
    35    17    35 1   
    36    18    19 1   
    37    19    20 1   
    38    19    36 1   
    39    20    21 2   
    40    20    22 1   
@<TRIPOS>SUBSTRUCTURE
     1 GHR         1 TEMP              0 ****  ****    0 ROOT
