@<TRIPOS>MOLECULE
GHR
   39    40     1     0     0
SMALL
No Charge or Current Charge


@<TRIPOS>ATOM
      1 C1           2.5090    -0.8500    -0.1190 c2         1 GHR       0.570200
      2 N5           2.7170     0.5150     0.0290 nu         1 GHR      -0.902400
      3 C5           4.0100     1.1830     0.3200 c6         1 GHR       0.232500
      4 C6           4.0480     2.6120    -0.3170 c3         1 GHR       0.155600
      5 O6           2.9080     3.4180     0.0510 oh         1 GHR      -0.672000
      6 C4           5.2110     0.2960    -0.1440 c6         1 GHR       0.166300
      7 O4           6.4720     0.7940     0.3390 oh         1 GHR      -0.716000
      8 C3           5.0090    -1.1540     0.3800 c6         1 GHR       0.137300
      9 O3           6.1670    -1.9630     0.0920 oh         1 GHR      -0.664000
     10 C2           3.7400    -1.7880    -0.2560 c6         1 GHR       0.114000
     11 O2           3.5330    -3.1180     0.3070 oh         1 GHR      -0.714000
     12 N1           1.2960    -1.2960    -0.1900 n2         1 GHR      -0.399700
     13 C12         -6.1320     0.7420     0.0010 ca         1 GHR       0.090000
     14 C11         -5.5780    -0.5370    -0.1620 ca         1 GHR      -0.073500
     15 C10         -4.1810    -0.7060    -0.1700 ca         1 GHR      -0.146000
     16 C13         -5.2920     1.8550     0.1560 ca         1 GHR      -0.073500
     17 C14         -3.8950     1.6870     0.1480 ca         1 GHR      -0.146000
     18 C9          -3.3260     0.4080    -0.0140 ca         1 GHR       0.001000
     19 N9          -1.9080     0.3140    -0.0120 ns         1 GHR      -0.151000
     20 C8          -1.0460    -0.7620    -0.1440 c          1 GHR       0.661100
     21 O8          -1.3700    -1.9340    -0.2990 o          1 GHR      -0.478000
     22 O7           0.2560    -0.3000    -0.0710 os         1 GHR      -0.334100
     23 H5           4.1020     1.3120     1.4090 h1         1 GHR       0.070700
     24 H6           4.9780     3.1060    -0.0030 h1         1 GHR       0.043200
     25 H6A          4.0900     2.4990    -1.4090 h1         1 GHR       0.043200
     26 HO6          3.0140     4.2890    -0.3950 ho         1 GHR       0.454000
     27 H4           5.2190     0.2660    -1.2450 h1         1 GHR       0.052700
     28 HO4          7.0530    -0.0080     0.3550 ho         1 GHR       0.532000
     29 H3           4.8520    -1.1050     1.4690 h1         1 GHR       0.062700
     30 HO3          5.8570    -2.8940     0.1970 ho         1 GHR       0.472000
     31 H2           3.9260    -1.8810    -1.3360 h1         1 GHR       0.066700
     32 HO2          2.6090    -3.3870     0.0740 ho         1 GHR       0.548000
     33 H10         -3.7880    -1.7100    -0.2980 ha         1 GHR       0.133000
     34 H13         -5.7210     2.8460     0.2820 ha         1 GHR       0.130500
     35 H14         -3.2540     2.5570     0.2690 ha         1 GHR       0.133000
     36 HN9         -1.4350     1.1990     0.1070 hn         1 GHR       0.163000
     37 H16          1.8610     1.0660     0.0780 hn         1 GHR       0.513000
     38 H11         -6.2310    -1.3980    -0.2820 ha         1 GHR       0.130500
     39 Cl12        -7.8790     0.9500     0.0100 cl         1 GHR      -0.204000
@<TRIPOS>BOND
     1     1     2 1   
     2     1    10 1   
     3     1    12 2   
     4     2     3 1   
     5     2    37 1   
     6     3     4 1   
     7     3     6 1   
     8     3    23 1   
     9     4     5 1   
    10     4    24 1   
    11     4    25 1   
    12     5    26 1   
    13     6     7 1   
    14     6     8 1   
    15     6    27 1   
    16     7    28 1   
    17     8     9 1   
    18     8    10 1   
    19     8    29 1   
    20     9    30 1   
    21    10    11 1   
    22    10    31 1   
    23    11    32 1   
    24    12    22 1   
    25    13    14 ar  
    26    13    16 ar  
    27    13    39 1   
    28    14    15 ar  
    29    14    38 1   
    30    15    18 ar  
    31    15    33 1   
    32    16    17 ar  
    33    16    34 1   
    34    17    18 ar  
    35    17    35 1   
    36    18    19 1   
    37    19    20 1   
    38    19    36 1   
    39    20    21 2   
    40    20    22 1   
@<TRIPOS>SUBSTRUCTURE
     1 GHR         1 TEMP              0 ****  ****    0 ROOT
