@<TRIPOS>MOLECULE
GHT
   43    46     1     0     0
SMALL
No Charge or Current Charge


@<TRIPOS>ATOM
      1 C10          3.2390    -3.4550    -0.7720 c3         1 GHT       0.179100
      2 C11          4.1930    -1.4550     0.4680 c6         1 GHT       0.187800
      3 C12          4.2530     0.0030    -0.0070 c6         1 GHT      -0.073100
      4 C13          2.8890     0.6940     0.0670 ca         1 GHT      -0.025300
      5 C01         -4.8410     1.3120     0.5150 c3         1 GHT       0.156900
      6 C03         -3.2420    -0.5480     0.1330 ca         1 GHT       0.045100
      7 C04         -2.1100     0.2950     0.2070 ca         1 GHT      -0.139000
      8 C05         -0.7850    -0.2030     0.0210 ca         1 GHT      -0.037000
      9 C06         -0.6590    -1.6060    -0.1600 ca         1 GHT      -0.002000
     10 C07          0.5970    -2.2120    -0.2470 ca         1 GHT      -0.125000
     11 C08          1.7700    -1.4610    -0.1420 ca         1 GHT       0.274000
     12 N09          3.0320    -2.1220    -0.1590 nh         1 GHT      -0.775400
     13 C14          2.8620     2.0870     0.1630 ca         1 GHT      -0.196000
     14 C15          1.6450     2.7620     0.1580 ca         1 GHT       0.126100
     15 C16          0.4260     2.0480     0.0770 ca         1 GHT       0.056100
     16 O17         -0.7180     2.8050    -0.0430 os         1 GHT      -0.349100
     17 C18         -1.0910     3.3050    -1.3380 c3         1 GHT       0.143900
     18 C19          0.4110     0.6090     0.0420 ca         1 GHT       0.031000
     19 C20          1.6830    -0.0510    -0.0030 ca         1 GHT      -0.084000
     20 O21          1.6610     4.1310     0.2160 oh         1 GHT      -0.517100
     21 C22         -1.7860    -2.4460    -0.2330 ca         1 GHT      -0.140000
     22 C23         -3.0700    -1.9190    -0.1010 ca         1 GHT       0.139100
     23 O24         -4.1580    -2.7400    -0.1700 oh         1 GHT      -0.533100
     24 H1           4.2940    -3.6070    -1.0350 h1         1 GHT       0.034367
     25 H2           2.9350    -4.2490    -0.0780 h1         1 GHT       0.034367
     26 H3           2.6530    -3.5470    -1.6970 h1         1 GHT       0.034367
     27 H4           5.1390    -1.9590     0.2170 h1         1 GHT       0.059200
     28 H5           4.0880    -1.4780     1.5630 h1         1 GHT       0.059200
     29 H6           4.9970     0.5470     0.5910 hc         1 GHT       0.056700
     30 H7           4.6080     0.0300    -1.0450 hc         1 GHT       0.056700
     31 H8          -5.9260     1.4570     0.5950 h1         1 GHT       0.043033
     32 H9          -4.3820     1.6710     1.4450 h1         1 GHT       0.043033
     33 H10         -4.4770     1.9270    -0.3180 h1         1 GHT       0.043033
     34 H11         -2.2920     1.3250     0.4570 ha         1 GHT       0.142000
     35 H12          0.6540    -3.2910    -0.3540 ha         1 GHT       0.123000
     36 H13          3.7960     2.6420     0.2100 ha         1 GHT       0.114000
     37 H14         -0.3100     3.9590    -1.7460 h1         1 GHT       0.035700
     38 H15         -1.2500     2.4760    -2.0390 h1         1 GHT       0.035700
     39 H16         -2.0220     3.8810    -1.2710 h1         1 GHT       0.035700
     40 H17          2.5920     4.4300     0.2750 ho         1 GHT       0.461000
     41 H18         -1.6670    -3.5160    -0.3840 ha         1 GHT       0.131000
     42 H19         -4.9450    -2.1650    -0.0340 ho         1 GHT       0.483000
     43 O02         -4.5370    -0.0790     0.2950 os         1 GHT      -0.370100
@<TRIPOS>BOND
     1     1    12 1   
     2     1    24 1   
     3     1    25 1   
     4     1    26 1   
     5     2     3 1   
     6     2    12 1   
     7     2    27 1   
     8     2    28 1   
     9     3     4 1   
    10     3    29 1   
    11     3    30 1   
    12     4    13 ar  
    13     4    19 ar  
    14     5    31 1   
    15     5    32 1   
    16     5    33 1   
    17     5    43 1   
    18     6     7 ar  
    19     6    22 ar  
    20     6    43 1   
    21     7     8 ar  
    22     7    34 1   
    23     8     9 ar  
    24     8    18 ar  
    25     9    10 ar  
    26     9    21 ar  
    27    10    11 ar  
    28    10    35 1   
    29    11    12 1   
    30    11    19 ar  
    31    13    14 ar  
    32    13    36 1   
    33    14    15 ar  
    34    14    20 1   
    35    15    16 1   
    36    15    18 ar  
    37    16    17 1   
    38    17    37 1   
    39    17    38 1   
    40    17    39 1   
    41    18    19 ar  
    42    20    40 1   
    43    21    22 ar  
    44    21    41 1   
    45    22    23 1   
    46    23    42 1   
@<TRIPOS>SUBSTRUCTURE
     1 GHT         1 TEMP              0 ****  ****    0 ROOT
