@<TRIPOS>MOLECULE
GHT
   43    46     1     0     0
SMALL
abcg2


@<TRIPOS>ATOM
      1 C10          3.3200    -2.9420    -1.1400 c3         1 GHT       0.179100
      2 C11          4.0500    -1.4870     0.6790 c6         1 GHT       0.187800
      3 C12          4.2070    -0.1260     0.0290 c6         1 GHT      -0.073100
      4 C13          2.8960     0.6040     0.0760 ca         1 GHT      -0.025300
      5 C01         -4.7130     1.3510     0.4120 c3         1 GHT       0.156900
      6 C03         -3.2140    -0.4820     0.1970 ca         1 GHT       0.045100
      7 C04         -2.0930     0.3080     0.2270 ca         1 GHT      -0.139000
      8 C05         -0.7910    -0.2340     0.0990 ca         1 GHT      -0.037000
      9 C06         -0.6890    -1.6380    -0.0100 ca         1 GHT      -0.002000
     10 C07          0.5800    -2.2760    -0.0220 ca         1 GHT      -0.125000
     11 C08          1.7350    -1.5680     0.0560 ca         1 GHT       0.274000
     12 N09          2.9660    -2.2450     0.0860 nh         1 GHT      -0.775400
     13 C14          2.8730     1.9760     0.0920 ca         1 GHT      -0.196000
     14 C15          1.6590     2.6630     0.0770 ca         1 GHT       0.126100
     15 C16          0.4600     1.9670     0.0610 ca         1 GHT       0.056100
     16 O17         -0.6750     2.7230     0.0020 os         1 GHT      -0.349100
     17 C18         -1.0760     3.0560    -1.3220 c3         1 GHT       0.143900
     18 C19          0.4320     0.5530     0.0910 ca         1 GHT       0.031000
     19 C20          1.6870    -0.1260     0.0910 ca         1 GHT      -0.084000
     20 O21          1.5980     4.0070     0.0680 oh         1 GHT      -0.517100
     21 C22         -1.8500    -2.4350    -0.0480 ca         1 GHT      -0.140000
     22 C23         -3.0990    -1.8840     0.0410 ca         1 GHT       0.139100
     23 O24         -4.1900    -2.6700    -0.0040 oh         1 GHT      -0.533100
     24 H1           4.1920    -3.5720    -0.9600 h1         1 GHT       0.034367
     25 H2           2.5050    -3.5910    -1.4530 h1         1 GHT       0.034367
     26 H3           3.5520    -2.2690    -1.9760 h1         1 GHT       0.034367
     27 H4           4.9670    -2.0720     0.6030 h1         1 GHT       0.059200
     28 H5           3.8460    -1.3570     1.7460 h1         1 GHT       0.059200
     29 H6           4.9830     0.4550     0.5310 hc         1 GHT       0.056700
     30 H7           4.5300    -0.2400    -1.0120 hc         1 GHT       0.056700
     31 H8          -5.7900     1.4850     0.4690 h1         1 GHT       0.043033
     32 H9          -4.2570     1.7700     1.3120 h1         1 GHT       0.043033
     33 H10         -4.3350     1.8880    -0.4620 h1         1 GHT       0.043033
     34 H11         -2.2110     1.3660     0.3820 ha         1 GHT       0.142000
     35 H12          0.6150    -3.3590    -0.0540 ha         1 GHT       0.123000
     36 H13          3.8050     2.5340     0.0990 ha         1 GHT       0.114000
     37 H14         -0.3010     3.6140    -1.8520 h1         1 GHT       0.035700
     38 H15         -1.3280     2.1640    -1.9030 h1         1 GHT       0.035700
     39 H16         -1.9630     3.6830    -1.2420 h1         1 GHT       0.035700
     40 H17          2.4880     4.3760     0.0430 ho         1 GHT       0.461000
     41 H18         -1.7480    -3.5100    -0.1410 ha         1 GHT       0.131000
     42 H19         -4.9890    -2.1340     0.0660 ho         1 GHT       0.483000
     43 O02         -4.4850    -0.0400     0.3070 os         1 GHT      -0.370100
@<TRIPOS>BOND
     1     1    12 1   
     2     1    24 1   
     3     1    25 1   
     4     1    26 1   
     5     2     3 1   
     6     2    12 1   
     7     2    27 1   
     8     2    28 1   
     9     3     4 1   
    10     3    29 1   
    11     3    30 1   
    12     4    13 ar  
    13     4    19 ar  
    14     5    31 1   
    15     5    32 1   
    16     5    33 1   
    17     5    43 1   
    18     6     7 ar  
    19     6    22 ar  
    20     6    43 1   
    21     7     8 ar  
    22     7    34 1   
    23     8     9 ar  
    24     8    18 ar  
    25     9    10 ar  
    26     9    21 ar  
    27    10    11 ar  
    28    10    35 1   
    29    11    12 1   
    30    11    19 ar  
    31    13    14 ar  
    32    13    36 1   
    33    14    15 ar  
    34    14    20 1   
    35    15    16 1   
    36    15    18 ar  
    37    16    17 1   
    38    17    37 1   
    39    17    38 1   
    40    17    39 1   
    41    18    19 ar  
    42    20    40 1   
    43    21    22 ar  
    44    21    41 1   
    45    22    23 1   
    46    23    42 1   
@<TRIPOS>SUBSTRUCTURE
     1 GHT         1 TEMP              0 ****  ****    0 ROOT
