@<TRIPOS>MOLECULE
GHU
   56    57     1     0     0
SMALL
No Charge or Current Charge


@<TRIPOS>ATOM
      1 C11         34.0070    -1.2080    12.9730 c3         1 GHU      -0.076400
      2 C14         31.6290    -2.0920    15.7150 ca         1 GHU       0.158100
      3 C15         32.2340    -3.0460    16.5640 ca         1 GHU      -0.198000
      4 C16         31.5690    -3.4880    17.7190 ca         1 GHU      -0.067000
      5 C17         30.2990    -2.9810    18.0340 ca         1 GHU      -0.149000
      6 C26         24.3490    -1.2280    14.7510 c3         1 GHU      -0.096100
      7 C28         32.9140     0.9330    17.0940 c3         1 GHU      -0.082100
      8 N01         35.9980     4.0770    14.5710 nb         1 GHU      -0.323000
      9 C02         35.6720     4.1960    15.8630 ca         1 GHU       0.401900
     10 N03         35.8520     5.4210    16.4060 nv         1 GHU      -1.045900
     11 N04         35.1940     3.2510    16.6830 nb         1 GHU      -0.280000
     12 C05         35.0120     2.0260    16.1450 ca         1 GHU       0.184300
     13 C06         35.3060     1.7780    14.7850 ca         1 GHU      -0.130900
     14 C07         35.8130     2.8650    14.0360 ca         1 GHU       0.399900
     15 N08         36.1990     2.7580    12.7360 nv         1 GHU      -1.064900
     16 O09         35.1170     0.5180    14.2420 os         1 GHU      -0.351100
     17 C10         34.1040     0.3080    13.2420 c3         1 GHU       0.152600
     18 C12         33.5870    -2.0320    14.2070 c3         1 GHU       0.168600
     19 O13         32.2600    -1.6240    14.5790 os         1 GHU      -0.356100
     20 C18         30.3480    -1.5830    16.0330 ca         1 GHU      -0.126300
     21 C19         29.6910    -2.0330    17.1960 ca         1 GHU      -0.069000
     22 C20         29.6640    -0.5490    15.1390 c3         1 GHU      -0.008100
     23 C21         29.0390    -1.1690    13.8670 c3         1 GHU      -0.131400
     24 C22         27.8900    -2.1180    14.2090 c          1 GHU       0.596100
     25 O23         28.0310    -3.3180    14.4060 o          1 GHU      -0.489000
     26 O24         26.6990    -1.4490    14.3270 os         1 GHU      -0.454100
     27 C25         25.5310    -2.2080    14.6810 c3         1 GHU       0.164600
     28 H112        33.2890    -1.3840    12.1640 hc         1 GHU       0.057200
     29 H111        34.9790    -1.5700    12.6160 hc         1 GHU       0.057200
     30 H151        33.2150    -3.4550    16.3450 ha         1 GHU       0.117000
     31 H161        32.0380    -4.2230    18.3710 ha         1 GHU       0.111000
     32 H171        29.7850    -3.3240    18.9290 ha         1 GHU       0.115000
     33 H262        23.4300    -1.7620    15.0200 hc         1 GHU       0.044700
     34 H261        24.5320    -0.4560    15.5080 hc         1 GHU       0.044700
     35 H263        24.1930    -0.7400    13.7820 hc         1 GHU       0.044700
     36 H272        34.8190    -0.0380    16.7730 hc         1 GHU       0.065200
     37 H271        34.8220     1.1070    18.0960 hc         1 GHU       0.065200
     38 H283        32.5470     0.1220    17.7340 hc         1 GHU       0.036367
     39 H282        32.5200     1.8810    17.4780 hc         1 GHU       0.036367
     40 H281        32.5180     0.7810    16.0840 hc         1 GHU       0.036367
     41 H032        36.0030     6.2080    15.7800 hn         1 GHU       0.483000
     42 H031        35.4250     5.6230    17.3060 hn         1 GHU       0.483000
     43 H081        36.7770     3.5010    12.3520 hn         1 GHU       0.490500
     44 H082        36.3620     1.8240    12.3710 hn         1 GHU       0.490500
     45 H102        33.1330     0.6840    13.5900 h1         1 GHU       0.038200
     46 H101        34.3550     0.8270    12.3090 h1         1 GHU       0.038200
     47 H122        33.6060    -3.1010    13.9580 h1         1 GHU       0.042700
     48 H121        34.2960    -1.8530    15.0260 h1         1 GHU       0.042700
     49 H191        28.7050    -1.6500    17.4510 ha         1 GHU       0.115000
     50 H202        28.8850    -0.0140    15.6960 hc         1 GHU       0.056200
     51 H201        30.3870     0.2190    14.8360 hc         1 GHU       0.056200
     52 H212        28.6410    -0.3340    13.2780 hc         1 GHU       0.074200
     53 H211        29.8080    -1.7070    13.3030 hc         1 GHU       0.074200
     54 H252        25.3230    -2.9800    13.9290 h1         1 GHU       0.047700
     55 H251        25.6610    -2.6950    15.6570 h1         1 GHU       0.047700
     56 C27         34.4550     0.9520    17.0740 c3         1 GHU      -0.135700
@<TRIPOS>BOND
     1     1    17 1   
     2     1    18 1   
     3     1    28 1   
     4     1    29 1   
     5     2     3 ar  
     6     2    19 1   
     7     2    20 ar  
     8     3     4 ar  
     9     3    30 1   
    10     4     5 ar  
    11     4    31 1   
    12     5    21 ar  
    13     5    32 1   
    14     6    27 1   
    15     6    33 1   
    16     6    34 1   
    17     6    35 1   
    18     7    38 1   
    19     7    39 1   
    20     7    40 1   
    21     7    56 1   
    22     8     9 ar  
    23     8    14 ar  
    24     9    10 1   
    25     9    11 ar  
    26    10    41 1   
    27    10    42 1   
    28    11    12 ar  
    29    12    13 ar  
    30    12    56 1   
    31    13    14 ar  
    32    13    16 1   
    33    14    15 1   
    34    15    43 1   
    35    15    44 1   
    36    16    17 1   
    37    17    45 1   
    38    17    46 1   
    39    18    19 1   
    40    18    47 1   
    41    18    48 1   
    42    20    21 ar  
    43    20    22 1   
    44    21    49 1   
    45    22    23 1   
    46    22    50 1   
    47    22    51 1   
    48    23    24 1   
    49    23    52 1   
    50    23    53 1   
    51    24    25 2   
    52    24    26 1   
    53    26    27 1   
    54    27    54 1   
    55    27    55 1   
    56    36    56 1   
    57    37    56 1   
@<TRIPOS>SUBSTRUCTURE
     1 GHU         1 TEMP              0 ****  ****    0 ROOT
