@<TRIPOS>MOLECULE
GHU
   56    57     1     0     0
SMALL
bcc


@<TRIPOS>ATOM
      1 C11         33.8680    -1.1280    13.1090 c3         1 GHU      -0.076400
      2 C14         31.4940    -2.1740    15.6790 ca         1 GHU       0.158100
      3 C15         31.9990    -3.2950    16.3310 ca         1 GHU      -0.216000
      4 C16         31.2740    -3.8840    17.3620 ca         1 GHU      -0.085000
      5 C17         30.0510    -3.3640    17.7460 ca         1 GHU      -0.167000
      6 C26         24.9860    -2.0760    15.6510 c3         1 GHU      -0.096100
      7 C28         32.0600     2.5570    16.2890 c3         1 GHU      -0.082100
      8 N01         36.7220     3.5470    14.8280 nb         1 GHU      -0.849000
      9 C02         35.9460     4.1180    15.7510 ca         1 GHU       0.927900
     10 N03         36.3160     5.3580    16.1690 nv         1 GHU      -0.935500
     11 N04         34.8810     3.5770    16.3290 nb         1 GHU      -0.806000
     12 C05         34.5400     2.3410    15.9400 ca         1 GHU       0.512600
     13 C06         35.2700     1.6610    14.9900 ca         1 GHU      -0.261500
     14 C07         36.3920     2.3210    14.4410 ca         1 GHU       0.728200
     15 N08         37.1410     1.7280    13.4920 nv         1 GHU      -0.954500
     16 O09         34.9750     0.3940    14.5760 os         1 GHU      -0.327900
     17 C10         34.0440     0.3240    13.5000 c3         1 GHU       0.129400
     18 C12         33.3850    -2.0290    14.2260 c3         1 GHU       0.145400
     19 O13         32.1330    -1.5410    14.6770 os         1 GHU      -0.332900
     20 C18         30.2530    -1.6320    16.0550 ca         1 GHU      -0.126300
     21 C19         29.5550    -2.2440    17.0870 ca         1 GHU      -0.087000
     22 C20         29.6810    -0.4350    15.3460 c3         1 GHU      -0.008100
     23 C21         29.1610    -0.7500    13.9350 c3         1 GHU      -0.131400
     24 C22         28.1700    -1.8820    13.9220 c          1 GHU       0.645100
     25 O23         28.3170    -2.9160    13.3180 o          1 GHU      -0.538000
     26 O24         27.1020    -1.6140    14.6640 os         1 GHU      -0.430900
     27 C25         26.0850    -2.6210    14.7720 c3         1 GHU       0.141400
     28 H112        33.1700    -1.1730    12.2690 hc         1 GHU       0.057200
     29 H111        34.8160    -1.5300    12.7430 hc         1 GHU       0.057200
     30 H151        32.9520    -3.7230    16.0520 ha         1 GHU       0.135000
     31 H161        31.6790    -4.7550    17.8610 ha         1 GHU       0.129000
     32 H171        29.4850    -3.8180    18.5490 ha         1 GHU       0.133000
     33 H262        24.2000    -2.8250    15.7460 hc         1 GHU       0.044700
     34 H261        25.3490    -1.8460    16.6520 hc         1 GHU       0.044700
     35 H263        24.5400    -1.1770    15.2270 hc         1 GHU       0.044700
     36 H272        33.1830     0.7160    16.2900 hc         1 GHU       0.065200
     37 H271        33.4910     1.7460    17.6740 hc         1 GHU       0.065200
     38 H283        31.2010     2.1250    16.8030 hc         1 GHU       0.036367
     39 H282        32.1620     3.5910    16.6140 hc         1 GHU       0.036367
     40 H281        31.8410     2.5590    15.2200 hc         1 GHU       0.036367
     41 H032        36.9350     5.8790    15.5730 hn         1 GHU       0.427800
     42 H031        35.6220     5.9010    16.6540 hn         1 GHU       0.427800
     43 H081        38.0250     2.1490    13.2560 hn         1 GHU       0.435300
     44 H082        37.0690     0.7350    13.3540 hn         1 GHU       0.435300
     45 H102        33.0890     0.7700    13.7990 h1         1 GHU       0.038200
     46 H101        34.4110     0.8940    12.6390 h1         1 GHU       0.038200
     47 H122        33.2840    -3.0540    13.8530 h1         1 GHU       0.042700
     48 H121        34.1060    -2.0500    15.0500 h1         1 GHU       0.042700
     49 H191        28.5990    -1.8280    17.3820 ha         1 GHU       0.133000
     50 H202        28.8720    -0.0210    15.9480 hc         1 GHU       0.056200
     51 H201        30.4300     0.3540    15.2530 hc         1 GHU       0.056200
     52 H212        28.6830     0.1450    13.5280 hc         1 GHU       0.074200
     53 H211        29.9820    -1.0120    13.2720 hc         1 GHU       0.074200
     54 H252        25.7030    -2.8690    13.7790 h1         1 GHU       0.047700
     55 H251        26.5130    -3.5300    15.2020 h1         1 GHU       0.047700
     56 C27         33.3220     1.7540    16.5930 c3         1 GHU      -0.135700
@<TRIPOS>BOND
     1     1    17 1   
     2     1    18 1   
     3     1    28 1   
     4     1    29 1   
     5     2     3 ar  
     6     2    19 1   
     7     2    20 ar  
     8     3     4 ar  
     9     3    30 1   
    10     4     5 ar  
    11     4    31 1   
    12     5    21 ar  
    13     5    32 1   
    14     6    27 1   
    15     6    33 1   
    16     6    34 1   
    17     6    35 1   
    18     7    38 1   
    19     7    39 1   
    20     7    40 1   
    21     7    56 1   
    22     8     9 ar  
    23     8    14 ar  
    24     9    10 1   
    25     9    11 ar  
    26    10    41 1   
    27    10    42 1   
    28    11    12 ar  
    29    12    13 ar  
    30    12    56 1   
    31    13    14 ar  
    32    13    16 1   
    33    14    15 1   
    34    15    43 1   
    35    15    44 1   
    36    16    17 1   
    37    17    45 1   
    38    17    46 1   
    39    18    19 1   
    40    18    47 1   
    41    18    48 1   
    42    20    21 ar  
    43    20    22 1   
    44    21    49 1   
    45    22    23 1   
    46    22    50 1   
    47    22    51 1   
    48    23    24 1   
    49    23    52 1   
    50    23    53 1   
    51    24    25 2   
    52    24    26 1   
    53    26    27 1   
    54    27    54 1   
    55    27    55 1   
    56    36    56 1   
    57    37    56 1   
@<TRIPOS>SUBSTRUCTURE
     1 GHU         1 TEMP              0 ****  ****    0 ROOT
