@<TRIPOS>MOLECULE
GHV
   67    69     1     0     0
SMALL
bcc


@<TRIPOS>ATOM
      1 O1           7.4310    -0.7670    -2.3650 o          1 GHV      -0.629500
      2 C34          6.6650    -1.6590    -2.0350 c          1 GHV       0.702500
      3 N33          6.6560    -2.9150    -2.5040 ns         1 GHV      -0.578900
      4 C32          5.5920    -3.7470    -1.9820 c5         1 GHV       0.099000
      5 C31          5.1840    -2.9950    -0.7130 c5         1 GHV      -0.092400
      6 C30          5.5320    -1.5400    -1.0250 c5         1 GHV      -0.154700
      7 C29          5.9100    -0.6840     0.1730 c3         1 GHV      -0.063400
      8 C26          4.7800    -0.5780     1.1990 c3         1 GHV      -0.016300
      9 C27          5.2850     0.1400     2.4310 c          1 GHV       0.556900
     10 O28          4.7990     1.1430     2.8800 o          1 GHV      -0.499100
     11 N24          3.6260     0.0670     0.6410 ns         1 GHV      -0.556900
     12 C23          2.4090    -0.0220     1.2050 c          1 GHV       0.661100
     13 O25          2.1400    -0.7940     2.1090 o          1 GHV      -0.601100
     14 C15          1.3810     0.9600     0.6550 c3         1 GHV       0.035700
     15 C16          1.4750     2.2720     1.4640 c3         1 GHV      -0.047100
     16 C17          0.5040     3.2970     0.9560 ca         1 GHV      -0.080300
     17 C22         -0.7770     3.3920     1.4910 ca         1 GHV      -0.117000
     18 C21         -1.6910     4.3090     0.9890 ca         1 GHV      -0.124500
     19 C20         -1.3320     5.1490    -0.0570 ca         1 GHV      -0.124000
     20 C19         -0.0550     5.0640    -0.5970 ca         1 GHV      -0.124500
     21 C18          0.8530     4.1430    -0.0940 ca         1 GHV      -0.117000
     22 N13          0.0670     0.3910     0.7290 ns         1 GHV      -0.562900
     23 C12         -0.8020     0.3600    -0.3080 c          1 GHV       0.683300
     24 O14         -0.4990     0.7250    -1.4380 o          1 GHV      -0.615100
     25 C11         -2.1330    -0.1620     0.0490 ce         1 GHV      -0.272200
     26 C10         -3.1100    -0.2490    -0.8650 cf         1 GHV      -0.000200
     27 C5          -4.4640    -0.7270    -0.6650 ca         1 GHV      -0.146800
     28 C6          -5.3720    -0.6890    -1.7280 ca         1 GHV      -0.051000
     29 C1          -6.6770    -1.1180    -1.5990 ca         1 GHV      -0.224500
     30 C4          -4.9380    -1.2330     0.5520 ca         1 GHV      -0.051000
     31 C3          -6.2340    -1.6690     0.7040 ca         1 GHV      -0.224500
     32 C2          -7.1530    -1.6230    -0.3710 ca         1 GHV       0.221600
     33 N7          -8.4340    -2.0480    -0.2240 nh         1 GHV      -0.691000
     34 C9          -8.8960    -2.5420     1.0530 c3         1 GHV       0.220600
     35 C8          -9.3480    -1.9960    -1.3420 c3         1 GHV       0.220600
     36 H1           7.2450    -3.2060    -3.2690 hn         1 GHV       0.329500
     37 H2           4.7620    -3.8190    -2.6910 h1         1 GHV       0.048200
     38 H3           5.9470    -4.7560    -1.7750 h1         1 GHV       0.048200
     39 H4           4.1350    -3.1480    -0.4680 hc         1 GHV       0.061700
     40 H5           5.7810    -3.3470     0.1330 hc         1 GHV       0.061700
     41 H6           4.6960    -1.0730    -1.5620 hc         1 GHV       0.082700
     42 H7           6.7830    -1.1170     0.6690 hc         1 GHV       0.065200
     43 H8           6.2000     0.3160    -0.1580 hc         1 GHV       0.065200
     44 H9           4.5100    -1.5880     1.5280 h1         1 GHV       0.094700
     45 H10          6.1590    -0.3420     2.9040 h4         1 GHV      -0.007800
     46 H13          3.7820     0.7790    -0.0570 hn         1 GHV       0.321500
     47 H14          1.5890     1.1750    -0.3940 h1         1 GHV       0.094700
     48 H15          1.2780     2.0510     2.5170 hc         1 GHV       0.063200
     49 H16          2.4980     2.6480     1.4060 hc         1 GHV       0.063200
     50 H17         -1.0650     2.7470     2.3130 ha         1 GHV       0.125000
     51 H18         -2.6830     4.3690     1.4180 ha         1 GHV       0.129500
     52 H19         -2.0410     5.8670    -0.4470 ha         1 GHV       0.129000
     53 H20          0.2350     5.7180    -1.4090 ha         1 GHV       0.129500
     54 H21          1.8490     4.0840    -0.5200 ha         1 GHV       0.125000
     55 H22         -0.2480     0.0740     1.6330 hn         1 GHV       0.326500
     56 H23         -2.2960    -0.4580     1.0790 ha         1 GHV       0.126000
     57 H24         -2.8800     0.0760    -1.8760 ha         1 GHV       0.141000
     58 H25         -5.0460    -0.3080    -2.6890 ha         1 GHV       0.127500
     59 H26         -7.3290    -1.0560    -2.4590 ha         1 GHV       0.131000
     60 H27         -4.2780    -1.2930     1.4090 ha         1 GHV       0.127500
     61 H28         -6.5370    -2.0510     1.6680 ha         1 GHV       0.131000
     62 H29         -8.7970    -1.7920     1.8420 h1         1 GHV       0.037533
     63 H30         -9.9460    -2.8060     0.9780 h1         1 GHV       0.037533
     64 H31         -8.3510    -3.4360     1.3690 h1         1 GHV       0.037533
     65 H32         -8.9960    -2.5940    -2.1870 h1         1 GHV       0.037533
     66 H33        -10.3110    -2.3930    -1.0370 h1         1 GHV       0.037533
     67 H34         -9.5060    -0.9750    -1.6990 h1         1 GHV       0.037533
@<TRIPOS>BOND
     1     1     2 2   
     2     2     3 1   
     3     2     6 1   
     4     3     4 1   
     5     3    36 1   
     6     4     5 1   
     7     4    37 1   
     8     4    38 1   
     9     5     6 1   
    10     5    39 1   
    11     5    40 1   
    12     6     7 1   
    13     6    41 1   
    14     7     8 1   
    15     7    42 1   
    16     7    43 1   
    17     8     9 1   
    18     8    11 1   
    19     8    44 1   
    20     9    10 2   
    21     9    45 1   
    22    11    12 1   
    23    11    46 1   
    24    12    13 2   
    25    12    14 1   
    26    14    15 1   
    27    14    22 1   
    28    14    47 1   
    29    15    16 1   
    30    15    48 1   
    31    15    49 1   
    32    16    17 ar  
    33    16    21 ar  
    34    17    18 ar  
    35    17    50 1   
    36    18    19 ar  
    37    18    51 1   
    38    19    20 ar  
    39    19    52 1   
    40    20    21 ar  
    41    20    53 1   
    42    21    54 1   
    43    22    23 1   
    44    22    55 1   
    45    23    24 2   
    46    23    25 1   
    47    25    26 2   
    48    25    56 1   
    49    26    27 1   
    50    26    57 1   
    51    27    28 ar  
    52    27    30 ar  
    53    28    29 ar  
    54    28    58 1   
    55    29    32 ar  
    56    29    59 1   
    57    30    31 ar  
    58    30    60 1   
    59    31    32 ar  
    60    31    61 1   
    61    32    33 1   
    62    33    34 1   
    63    33    35 1   
    64    34    62 1   
    65    34    63 1   
    66    34    64 1   
    67    35    65 1   
    68    35    66 1   
    69    35    67 1   
@<TRIPOS>SUBSTRUCTURE
     1 GHV         1 TEMP              0 ****  ****    0 ROOT
