@<TRIPOS>MOLECULE
GHV
   67    69     1     0     0
SMALL
No Charge or Current Charge


@<TRIPOS>ATOM
      1 O1           6.3030    -1.9140    -2.9530 o          1 GHV      -0.554000
      2 C34          5.4770    -2.4020    -2.1990 c          1 GHV       0.560000
      3 N33          5.0760    -3.7080    -2.2700 ns         1 GHV      -0.511900
      4 C32          4.2370    -4.1500    -1.1590 c5         1 GHV       0.099000
      5 C31          4.6890    -3.1590    -0.0520 c5         1 GHV      -0.092400
      6 C30          4.9150    -1.8610    -0.8760 c5         1 GHV      -0.154700
      7 C29          5.8200    -0.7950    -0.1980 c3         1 GHV      -0.063400
      8 C26          5.2440    -0.1610     1.0960 c3         1 GHV      -0.016300
      9 C27          6.3120     0.7030     1.8170 c          1 GHV       0.556900
     10 O28          6.2260     1.9190     1.9690 o          1 GHV      -0.499100
     11 N24          4.0220     0.6350     0.8190 ns         1 GHV      -0.489900
     12 C23          2.7240     0.2150     1.0360 c          1 GHV       0.594100
     13 O25          2.4700    -0.8840     1.5130 o          1 GHV      -0.601100
     14 C15          1.6260     1.2390     0.6320 c3         1 GHV       0.035700
     15 C16          1.6060     2.4520     1.6010 c3         1 GHV      -0.047100
     16 C17          0.5490     3.4940     1.2500 ca         1 GHV      -0.080300
     17 C22         -0.6870     3.5120     1.9270 ca         1 GHV      -0.099000
     18 C21         -1.6620     4.4700     1.5980 ca         1 GHV      -0.106500
     19 C20         -1.4060     5.4170     0.5920 ca         1 GHV      -0.106000
     20 C19         -0.1760     5.4040    -0.0860 ca         1 GHV      -0.106500
     21 C18          0.7990     4.4450     0.2420 ca         1 GHV      -0.099000
     22 N13          0.2980     0.5820     0.5740 ns         1 GHV      -0.495900
     23 C12         -0.6590     0.8140    -0.3830 c          1 GHV       0.616300
     24 O14         -0.4760     1.5520    -1.3390 o          1 GHV      -0.615100
     25 C11         -1.9290     0.0760    -0.1610 ce         1 GHV      -0.322200
     26 C10         -3.0180     0.1520    -0.9810 cf         1 GHV      -0.050200
     27 C5          -4.3270    -0.5250    -0.8650 ca         1 GHV      -0.146800
     28 C6          -5.3150    -0.2910    -1.8400 ca         1 GHV      -0.033000
     29 C1          -6.5670    -0.9210    -1.7550 ca         1 GHV      -0.206500
     30 C4          -4.6190    -1.4030     0.1990 ca         1 GHV      -0.033000
     31 C3          -5.8750    -2.0300     0.2800 ca         1 GHV      -0.206500
     32 C2          -6.8640    -1.7980    -0.6950 ca         1 GHV       0.360000
     33 N7          -8.1290    -2.4330    -0.6100 nh         1 GHV      -0.829400
     34 C9          -8.7070    -2.8370     0.6940 c3         1 GHV       0.220600
     35 C8          -8.9330    -2.7210    -1.8210 c3         1 GHV       0.220600
     36 H1           5.4130    -4.2850    -3.0320 hn         1 GHV       0.329500
     37 H2           3.1700    -4.0330    -1.3930 h1         1 GHV       0.048200
     38 H3           4.4180    -5.1950    -0.8750 h1         1 GHV       0.048200
     39 H4           3.9430    -3.0490     0.7430 hc         1 GHV       0.061700
     40 H5           5.6200    -3.5020     0.4160 hc         1 GHV       0.061700
     41 H6           3.9360    -1.4240    -1.1060 hc         1 GHV       0.082700
     42 H7           6.7910    -1.2520     0.0360 hc         1 GHV       0.065200
     43 H8           6.0330     0.0120    -0.9110 hc         1 GHV       0.065200
     44 H9           4.9990    -0.9680     1.7990 h1         1 GHV       0.094700
     45 H10          7.1900     0.1420     2.2060 h4         1 GHV      -0.007800
     46 H13          4.1390     1.5720     0.4450 hn         1 GHV       0.321500
     47 H14          1.8880     1.5980    -0.3720 h1         1 GHV       0.094700
     48 H15          1.4460     2.0850     2.6230 hc         1 GHV       0.063200
     49 H16          2.5950     2.9260     1.6080 hc         1 GHV       0.063200
     50 H17         -0.8960     2.7810     2.7050 ha         1 GHV       0.107000
     51 H18         -2.6150     4.4780     2.1220 ha         1 GHV       0.111500
     52 H19         -2.1610     6.1580     0.3370 ha         1 GHV       0.111000
     53 H20          0.0230     6.1350    -0.8660 ha         1 GHV       0.111500
     54 H21          1.7480     4.4400    -0.2890 ha         1 GHV       0.107000
     55 H22          0.0650    -0.0870     1.2990 hn         1 GHV       0.326500
     56 H23         -1.9620    -0.5540     0.7230 ha         1 GHV       0.176000
     57 H24         -2.9320     0.8030    -1.8560 ha         1 GHV       0.191000
     58 H25         -5.1160     0.3840    -2.6700 ha         1 GHV       0.109500
     59 H26         -7.3110    -0.7110    -2.5170 ha         1 GHV       0.113000
     60 H27         -3.8820    -1.6110     0.9690 ha         1 GHV       0.109500
     61 H28         -6.0660    -2.7090     1.1040 ha         1 GHV       0.113000
     62 H29         -8.4520    -2.1060     1.4730 h1         1 GHV       0.037533
     63 H30         -9.8030    -2.8900     0.6370 h1         1 GHV       0.037533
     64 H31         -8.3260    -3.8220     0.9960 h1         1 GHV       0.037533
     65 H32         -8.2820    -2.9980    -2.6610 h1         1 GHV       0.037533
     66 H33         -9.6190    -3.5620    -1.6450 h1         1 GHV       0.037533
     67 H34         -9.5270    -1.8430    -2.1080 h1         1 GHV       0.037533
@<TRIPOS>BOND
     1     1     2 2   
     2     2     3 1   
     3     2     6 1   
     4     3     4 1   
     5     3    36 1   
     6     4     5 1   
     7     4    37 1   
     8     4    38 1   
     9     5     6 1   
    10     5    39 1   
    11     5    40 1   
    12     6     7 1   
    13     6    41 1   
    14     7     8 1   
    15     7    42 1   
    16     7    43 1   
    17     8     9 1   
    18     8    11 1   
    19     8    44 1   
    20     9    10 2   
    21     9    45 1   
    22    11    12 1   
    23    11    46 1   
    24    12    13 2   
    25    12    14 1   
    26    14    15 1   
    27    14    22 1   
    28    14    47 1   
    29    15    16 1   
    30    15    48 1   
    31    15    49 1   
    32    16    17 ar  
    33    16    21 ar  
    34    17    18 ar  
    35    17    50 1   
    36    18    19 ar  
    37    18    51 1   
    38    19    20 ar  
    39    19    52 1   
    40    20    21 ar  
    41    20    53 1   
    42    21    54 1   
    43    22    23 1   
    44    22    55 1   
    45    23    24 2   
    46    23    25 1   
    47    25    26 2   
    48    25    56 1   
    49    26    27 1   
    50    26    57 1   
    51    27    28 ar  
    52    27    30 ar  
    53    28    29 ar  
    54    28    58 1   
    55    29    32 ar  
    56    29    59 1   
    57    30    31 ar  
    58    30    60 1   
    59    31    32 ar  
    60    31    61 1   
    61    32    33 1   
    62    33    34 1   
    63    33    35 1   
    64    34    62 1   
    65    34    63 1   
    66    34    64 1   
    67    35    65 1   
    68    35    66 1   
    69    35    67 1   
@<TRIPOS>SUBSTRUCTURE
     1 GHV         1 TEMP              0 ****  ****    0 ROOT
