@<TRIPOS>MOLECULE
GHW
   47    49     1     0     0
SMALL
No Charge or Current Charge


@<TRIPOS>ATOM
      1 C4           4.8960    -0.1390     0.7230 cc         1 GHW       0.135400
      2 C5           4.0790     0.2370    -0.3190 cd         1 GHW      -0.253600
      3 C6           3.7520    -0.7230    -1.3980 c          1 GHW       0.609600
      4 N1           4.3180    -1.9360    -1.1950 ns         1 GHW      -0.448400
      5 C3           4.1520     2.2670     0.9080 cc         1 GHW      -0.173300
      6 N3           5.4330    -1.4080     0.8300 nc         1 GHW      -0.705100
      7 S4           5.1610     1.1840     1.8660 ss         1 GHW       0.174000
      8 C2           5.0950    -2.2130    -0.1410 cd         1 GHW       0.738800
      9 O6           3.0690    -0.4910    -2.3810 o          1 GHW      -0.488000
     10 C1           3.6510     1.5950    -0.1830 cd         1 GHW      -0.067000
     11 SAT          2.5860     2.4750    -1.2960 ss         1 GHW       0.054000
     12 CAZ          1.1130     1.6500    -0.6730 ca         1 GHW      -0.103000
     13 CAJ          0.2550     1.0130    -1.5840 ca         1 GHW      -0.116500
     14 CAL         -0.9090     0.3620    -1.1400 ca         1 GHW      -0.072500
     15 CAI          0.7860     1.6440     0.6950 ca         1 GHW      -0.116500
     16 CAK         -0.3770     0.9950     1.1450 ca         1 GHW      -0.072500
     17 CBA         -1.2420     0.3420     0.2370 ca         1 GHW      -0.103600
     18 CAX         -2.4890    -0.3490     0.7610 c          1 GHW       0.595700
     19 OAE         -2.7740    -0.3550     1.9530 o          1 GHW      -0.637100
     20 NAS         -3.2840    -0.9810    -0.1760 ns         1 GHW      -0.420900
     21 CAP         -4.5630    -1.6800     0.1000 c3         1 GHW      -0.049300
     22 CAW         -4.6320    -3.0080    -0.7150 c          1 GHW       0.719000
     23 OAG         -4.3690    -2.9730    -1.9110 o          1 GHW      -0.742500
     24 OAD         -4.8570    -4.0470    -0.1110 o          1 GHW      -0.742500
     25 CBG         -5.7970    -0.7820    -0.1860 c3         1 GHW      -0.055400
     26 CAN         -5.8900     0.4950     0.6900 c3         1 GHW      -0.201400
     27 CAV         -7.2050     1.2420     0.4000 c          1 GHW       0.712000
     28 OXT         -7.2140     2.0710    -0.4970 o          1 GHW      -0.760500
     29 OAC         -8.1970     0.9380     1.0440 o          1 GHW      -0.760500
     30 H13          4.3840     3.9030     2.3020 hc         1 GHW       0.050367
     31 H13A         4.4620     4.3780     0.5970 hc         1 GHW       0.050367
     32 H13B         2.9020     3.9820     1.3380 hc         1 GHW       0.050367
     33 HN1          4.1550    -2.6320    -1.9010 hn         1 GHW       0.323500
     34 HN2          5.0210    -4.1810    -0.4400 hn         1 GHW       0.504500
     35 HN2A         6.0110    -3.6370     0.8410 hn         1 GHW       0.504500
     36 HAJ          0.4950     1.0170    -2.6450 ha         1 GHW       0.106500
     37 HAL         -1.5400    -0.1200    -1.8820 ha         1 GHW       0.134500
     38 HAI          1.4250     2.1410     1.4180 ha         1 GHW       0.106500
     39 HAK         -0.6050     1.0030     2.2090 ha         1 GHW       0.134500
     40 HNAS        -2.9630    -0.9600    -1.1350 hn         1 GHW       0.299500
     41 HAP         -4.5840    -1.9620     1.1610 h1         1 GHW       0.054700
     42 HBG         -5.7980    -0.4950    -1.2450 hc         1 GHW       0.051200
     43 HBGA        -6.7020    -1.3820    -0.0270 hc         1 GHW       0.051200
     44 HAN         -5.8680     0.1460     1.7300 hc         1 GHW       0.009200
     45 HANA        -5.0300     1.1180     0.4150 hc         1 GHW       0.009200
     46 C13          3.9630     3.7090     1.3080 c3         1 GHW      -0.023800
     47 N2           5.5890    -3.4350    -0.0560 nv         1 GHW      -1.065200
@<TRIPOS>BOND
     1     1     2 2   
     2     1     6 1   
     3     1     7 1   
     4     2     3 1   
     5     2    10 1   
     6     3     4 1   
     7     3     9 2   
     8     4     8 1   
     9     4    33 1   
    10     5     7 1   
    11     5    10 2   
    12     5    46 1   
    13     6     8 2   
    14     8    47 1   
    15    10    11 1   
    16    11    12 1   
    17    12    13 ar  
    18    12    15 ar  
    19    13    14 ar  
    20    13    36 1   
    21    14    17 ar  
    22    14    37 1   
    23    15    16 ar  
    24    15    38 1   
    25    16    17 ar  
    26    16    39 1   
    27    17    18 1   
    28    18    19 2   
    29    18    20 1   
    30    20    21 1   
    31    20    40 1   
    32    21    22 1   
    33    21    25 1   
    34    21    41 1   
    35    22    23 1   
    36    22    24 1   
    37    25    26 1   
    38    25    42 1   
    39    25    43 1   
    40    26    27 1   
    41    26    44 1   
    42    26    45 1   
    43    27    28 1   
    44    27    29 1   
    45    30    46 1   
    46    31    46 1   
    47    32    46 1   
    48    34    47 1   
    49    35    47 1   
@<TRIPOS>SUBSTRUCTURE
     1 GHW         1 TEMP              0 ****  ****    0 ROOT
