@<TRIPOS>MOLECULE
GHW
   47    49     1     0     0
SMALL
abcg2


@<TRIPOS>ATOM
      1 C4           5.2340    -0.1750     0.2820 cc         1 GHW       0.135400
      2 C5           4.1270     0.2150    -0.4470 cd         1 GHW      -0.253600
      3 C6           3.5590    -0.7390    -1.3570 c          1 GHW       0.609600
      4 N1           4.2580    -1.9460    -1.3540 ns         1 GHW      -0.448400
      5 C3           4.5000     2.1650     0.7810 cc         1 GHW      -0.173300
      6 N3           5.8630    -1.3560     0.2450 nc         1 GHW      -0.705100
      7 S4           5.7720     1.1030     1.3160 ss         1 GHW       0.174000
      8 C2           5.3500    -2.2260    -0.5920 cd         1 GHW       0.738800
      9 O6           2.5900    -0.5950    -2.0790 o          1 GHW      -0.488000
     10 C1           3.7170     1.5580    -0.1520 cd         1 GHW      -0.067000
     11 SAT          2.3960     2.3890    -0.9500 ss         1 GHW       0.054000
     12 CAZ          0.9750     1.5740    -0.2920 ca         1 GHW      -0.103000
     13 CAJ         -0.2240     1.7300    -0.9820 ca         1 GHW      -0.116500
     14 CAL         -1.3870     1.1610    -0.4910 ca         1 GHW      -0.072500
     15 CAI          0.9960     0.8450     0.8920 ca         1 GHW      -0.116500
     16 CAK         -0.1720     0.2810     1.3760 ca         1 GHW      -0.072500
     17 CBA         -1.3760     0.4220     0.6910 ca         1 GHW      -0.103600
     18 CAX         -2.6110    -0.1770     1.2820 c          1 GHW       0.595700
     19 OAE         -2.7060    -0.3450     2.4930 o          1 GHW      -0.637100
     20 NAS         -3.5920    -0.4760     0.4220 ns         1 GHW      -0.420900
     21 CAP         -4.8090    -1.1360     0.8400 c3         1 GHW      -0.049300
     22 CAW         -4.5850    -2.6280     1.1970 c          1 GHW       0.719000
     23 OAG         -3.5050    -3.1480     0.8690 o          1 GHW      -0.742500
     24 OAD         -5.5440    -3.1790     1.7730 o          1 GHW      -0.742500
     25 CBG         -5.8740    -0.9940    -0.2480 c3         1 GHW      -0.055400
     26 CAN         -6.2400     0.4480    -0.5590 c3         1 GHW      -0.201400
     27 CAV         -7.3520     0.6430    -1.6060 c          1 GHW       0.712000
     28 OXT         -7.6370     1.8290    -1.8820 o          1 GHW      -0.760500
     29 OAC         -7.8810    -0.3740    -2.0960 o          1 GHW      -0.760500
     30 H13          4.4940     3.5240     2.4360 hc         1 GHW       0.050367
     31 H13A         5.1990     4.1820     0.9650 hc         1 GHW       0.050367
     32 H13B         3.4510     3.9860     1.0880 hc         1 GHW       0.050367
     33 HN1          3.9070    -2.6580    -1.9830 hn         1 GHW       0.323500
     34 HN2          5.5050    -4.1470    -1.3080 hn         1 GHW       0.504500
     35 HN2A         6.6770    -3.6830    -0.1350 hn         1 GHW       0.504500
     36 HAJ         -0.2570     2.3010    -1.9020 ha         1 GHW       0.106500
     37 HAL         -2.3080     1.3220    -1.0370 ha         1 GHW       0.134500
     38 HAI          1.9180     0.7200     1.4440 ha         1 GHW       0.106500
     39 HAK         -0.1440    -0.2770     2.3030 ha         1 GHW       0.134500
     40 HNAS        -3.3640    -0.5200    -0.5590 hn         1 GHW       0.299500
     41 HAP         -5.1700    -0.6260     1.7380 h1         1 GHW       0.054700
     42 HBG         -5.5330    -1.5020    -1.1570 hc         1 GHW       0.051200
     43 HBGA        -6.7590    -1.5350     0.0870 hc         1 GHW       0.051200
     44 HAN         -6.5500     0.9520     0.3640 hc         1 GHW       0.009200
     45 HANA        -5.3600     1.0030    -0.9000 hc         1 GHW       0.009200
     46 C13          4.4070     3.5370     1.3490 c3         1 GHW      -0.023800
     47 N2           5.9080    -3.4290    -0.7320 nv         1 GHW      -1.065200
@<TRIPOS>BOND
     1     1     2 2   
     2     1     6 1   
     3     1     7 1   
     4     2     3 1   
     5     2    10 1   
     6     3     4 1   
     7     3     9 2   
     8     4     8 1   
     9     4    33 1   
    10     5     7 1   
    11     5    10 2   
    12     5    46 1   
    13     6     8 2   
    14     8    47 1   
    15    10    11 1   
    16    11    12 1   
    17    12    13 ar  
    18    12    15 ar  
    19    13    14 ar  
    20    13    36 1   
    21    14    17 ar  
    22    14    37 1   
    23    15    16 ar  
    24    15    38 1   
    25    16    17 ar  
    26    16    39 1   
    27    17    18 1   
    28    18    19 2   
    29    18    20 1   
    30    20    21 1   
    31    20    40 1   
    32    21    22 1   
    33    21    25 1   
    34    21    41 1   
    35    22    23 1   
    36    22    24 1   
    37    25    26 1   
    38    25    42 1   
    39    25    43 1   
    40    26    27 1   
    41    26    44 1   
    42    26    45 1   
    43    27    28 1   
    44    27    29 1   
    45    30    46 1   
    46    31    46 1   
    47    32    46 1   
    48    34    47 1   
    49    35    47 1   
@<TRIPOS>SUBSTRUCTURE
     1 GHW         1 TEMP              0 ****  ****    0 ROOT
