@<TRIPOS>MOLECULE
GHX
   59    61     1     0     0
SMALL
No Charge or Current Charge


@<TRIPOS>ATOM
      1 O1           5.9960    -1.3880    -2.4320 o          1 GHX      -0.554000
      2 C34          5.1610    -1.9740    -1.7620 c          1 GHX       0.561000
      3 N33          4.9710    -3.3270    -1.8180 ns         1 GHX      -0.511900
      4 C32          4.0710    -3.8600    -0.7970 c5         1 GHX       0.099000
      5 C31          4.2250    -2.7790     0.3070 c5         1 GHX      -0.092400
      6 C30          4.3600    -1.4860    -0.5460 c5         1 GHX      -0.154700
      7 C29          5.0030    -0.2750     0.1860 c3         1 GHX      -0.062400
      8 C26          4.1790     0.3010     1.3670 c3         1 GHX      -0.017300
      9 C27          5.0050     1.3410     2.1700 c          1 GHX       0.557900
     10 O28          4.7180     2.5320     2.2510 o          1 GHX      -0.499100
     11 N24          2.8970     0.8910     0.9060 ns         1 GHX      -0.488900
     12 C23          1.6590     0.2810     0.9850 c          1 GHX       0.598100
     13 O25          1.5140    -0.8290     1.4830 o          1 GHX      -0.596100
     14 C15          0.4800     1.1100     0.4010 c3         1 GHX       0.045700
     15 C16          0.1570     2.3380     1.2940 c3         1 GHX      -0.053100
     16 C17         -0.9950     3.1870     0.7650 ca         1 GHX      -0.087300
     17 C22         -0.7700     4.1260    -0.2610 ca         1 GHX      -0.098000
     18 C21         -1.8320     4.9030    -0.7560 ca         1 GHX      -0.107500
     19 C20         -3.1250     4.7460    -0.2300 ca         1 GHX      -0.106000
     20 C19         -3.3550     3.8110     0.7940 ca         1 GHX      -0.107500
     21 C18         -2.2940     3.0350     1.2900 ca         1 GHX      -0.098000
     22 N13         -0.7150     0.2540     0.2210 ns         1 GHX      -0.484900
     23 C12         -1.5980     0.3420    -0.8160 c          1 GHX       0.643100
     24 O14         -1.4840     1.0820    -1.7810 o          1 GHX      -0.542000
     25 O11         -2.5980    -0.5570    -0.6160 os         1 GHX      -0.455100
     26 C10         -3.6420    -0.6140    -1.6000 c3         1 GHX       0.230900
     27 C1          -4.6590    -1.6590    -1.1610 ca         1 GHX      -0.101300
     28 C6          -4.5500    -2.9910    -1.6070 ca         1 GHX      -0.084500
     29 C5          -5.4900    -3.9540    -1.2010 ca         1 GHX      -0.115500
     30 C4          -6.5460    -3.5910    -0.3470 ca         1 GHX      -0.098000
     31 C3          -6.6580    -2.2650     0.1030 ca         1 GHX      -0.115500
     32 C2          -5.7180    -1.3010    -0.3030 ca         1 GHX      -0.084500
     33 H1           5.4850    -3.8680    -2.5040 hn         1 GHX       0.330500
     34 H2           3.0370    -3.9140    -1.1650 h1         1 GHX       0.048200
     35 H3           4.3670    -4.8560    -0.4430 h1         1 GHX       0.048200
     36 H4           3.3760    -2.7610     0.9990 hc         1 GHX       0.061700
     37 H5           5.1290    -2.9610     0.9010 hc         1 GHX       0.061700
     38 H6           3.3650    -1.2120    -0.9140 hc         1 GHX       0.080700
     39 H7           5.9940    -0.5700     0.5570 hc         1 GHX       0.065200
     40 H8           5.1830     0.5340    -0.5350 hc         1 GHX       0.065200
     41 H9           3.9700    -0.5130     2.0750 h1         1 GHX       0.096700
     42 H10          5.9010     0.9340     2.6880 h4         1 GHX      -0.004800
     43 H13          2.9190     1.8220     0.5020 hn         1 GHX       0.321500
     44 H14          0.8060     1.4680    -0.5850 h1         1 GHX       0.091700
     45 H15         -0.0710     1.9880     2.3080 hc         1 GHX       0.066200
     46 H16          1.0540     2.9620     1.3900 hc         1 GHX       0.066200
     47 H17          0.2270     4.2520    -0.6770 ha         1 GHX       0.110500
     48 H18         -1.6520     5.6260    -1.5490 ha         1 GHX       0.111500
     49 H19         -3.9460     5.3460    -0.6140 ha         1 GHX       0.112000
     50 H20         -4.3560     3.6860     1.2010 ha         1 GHX       0.111500
     51 H21         -2.4830     2.3100     2.0790 ha         1 GHX       0.110500
     52 H22         -0.9220    -0.4500     0.9190 hn         1 GHX       0.341500
     53 H23         -4.1380     0.3610    -1.6980 h1         1 GHX       0.056200
     54 H24         -3.2360    -0.8850    -2.5840 h1         1 GHX       0.056200
     55 H25         -3.7340    -3.2810    -2.2670 ha         1 GHX       0.114500
     56 H26         -5.4010    -4.9810    -1.5480 ha         1 GHX       0.114000
     57 H27         -7.2730    -4.3370    -0.0330 ha         1 GHX       0.113000
     58 H28         -7.4740    -1.9830     0.7650 ha         1 GHX       0.114000
     59 H29         -5.8110    -0.2770     0.0520 ha         1 GHX       0.114500
@<TRIPOS>BOND
     1     1     2 2   
     2     2     3 1   
     3     2     6 1   
     4     3     4 1   
     5     3    33 1   
     6     4     5 1   
     7     4    34 1   
     8     4    35 1   
     9     5     6 1   
    10     5    36 1   
    11     5    37 1   
    12     6     7 1   
    13     6    38 1   
    14     7     8 1   
    15     7    39 1   
    16     7    40 1   
    17     8     9 1   
    18     8    11 1   
    19     8    41 1   
    20     9    10 2   
    21     9    42 1   
    22    11    12 1   
    23    11    43 1   
    24    12    13 2   
    25    12    14 1   
    26    14    15 1   
    27    14    22 1   
    28    14    44 1   
    29    15    16 1   
    30    15    45 1   
    31    15    46 1   
    32    16    17 ar  
    33    16    21 ar  
    34    17    18 ar  
    35    17    47 1   
    36    18    19 ar  
    37    18    48 1   
    38    19    20 ar  
    39    19    49 1   
    40    20    21 ar  
    41    20    50 1   
    42    21    51 1   
    43    22    23 1   
    44    22    52 1   
    45    23    24 2   
    46    23    25 1   
    47    25    26 1   
    48    26    27 1   
    49    26    53 1   
    50    26    54 1   
    51    27    28 ar  
    52    27    32 ar  
    53    28    29 ar  
    54    28    55 1   
    55    29    30 ar  
    56    29    56 1   
    57    30    31 ar  
    58    30    57 1   
    59    31    32 ar  
    60    31    58 1   
    61    32    59 1   
@<TRIPOS>SUBSTRUCTURE
     1 GHX         1 TEMP              0 ****  ****    0 ROOT
