@<TRIPOS>MOLECULE
GHX
   59    61     1     0     0
SMALL
abcg2


@<TRIPOS>ATOM
      1 O1           6.8490    -0.2420    -1.9420 o          1 GHX      -0.554000
      2 C34          6.1140    -1.1680    -1.6360 c          1 GHX       0.561000
      3 N33          6.2170    -2.4380    -2.0540 ns         1 GHX      -0.511900
      4 C32          5.1700    -3.3170    -1.5770 c5         1 GHX       0.099000
      5 C31          4.6230    -2.5480    -0.3730 c5         1 GHX      -0.092400
      6 C30          4.9010    -1.0870    -0.7220 c5         1 GHX      -0.154700
      7 C29          5.1210    -0.1570     0.4620 c3         1 GHX      -0.062400
      8 C26          3.9200    -0.1350     1.4090 c3         1 GHX      -0.017300
      9 C27          4.2270     0.7200     2.6180 c          1 GHX       0.557900
     10 O28          3.5480     1.6420     2.9840 o          1 GHX      -0.499100
     11 N24          2.7290     0.3000     0.7360 ns         1 GHX      -0.488900
     12 C23          1.4960    -0.0020     1.1730 c          1 GHX       0.598100
     13 O25          1.2730    -0.7900     2.0760 o          1 GHX      -0.596100
     14 C15          0.3730     0.7530     0.4760 c3         1 GHX       0.045700
     15 C16          0.0830     2.0500     1.2650 c3         1 GHX      -0.053100
     16 C17         -1.0470     2.8160     0.6430 ca         1 GHX      -0.087300
     17 C22         -0.8120     3.7050    -0.4020 ca         1 GHX      -0.098000
     18 C21         -1.8630     4.3610    -1.0260 ca         1 GHX      -0.107500
     19 C20         -3.1700     4.1300    -0.6170 ca         1 GHX      -0.106000
     20 C19         -3.4170     3.2470     0.4250 ca         1 GHX      -0.107500
     21 C18         -2.3610     2.5990     1.0520 ca         1 GHX      -0.098000
     22 N13         -0.7890    -0.0880     0.3920 ns         1 GHX      -0.484900
     23 C12         -1.5820    -0.1120    -0.7000 c          1 GHX       0.643100
     24 O14         -1.3090     0.3670    -1.7790 o          1 GHX      -0.542000
     25 O11         -2.7170    -0.7670    -0.4380 os         1 GHX      -0.455100
     26 C10         -3.6780    -0.8410    -1.4960 c3         1 GHX       0.230900
     27 C1          -4.9160    -1.4540    -0.9170 ca         1 GHX      -0.101300
     28 C6          -5.1250    -2.8280    -0.9830 ca         1 GHX      -0.084500
     29 C5          -6.2620    -3.3960    -0.4250 ca         1 GHX      -0.115500
     30 C4          -7.2010    -2.5920     0.2070 ca         1 GHX      -0.098000
     31 C3          -7.0000    -1.2190     0.2790 ca         1 GHX      -0.115500
     32 C2          -5.8620    -0.6550    -0.2800 ca         1 GHX      -0.084500
     33 H1           6.8860    -2.7200    -2.7550 hn         1 GHX       0.330500
     34 H2           4.4020    -3.4690    -2.3420 h1         1 GHX       0.048200
     35 H3           5.5700    -4.2930    -1.3040 h1         1 GHX       0.048200
     36 H4           3.5700    -2.7580    -0.1960 hc         1 GHX       0.061700
     37 H5           5.1760    -2.8290     0.5260 hc         1 GHX       0.061700
     38 H6           4.0810    -0.6970    -1.3390 hc         1 GHX       0.080700
     39 H7           5.9970    -0.4840     1.0270 hc         1 GHX       0.065200
     40 H8           5.3320     0.8550     0.1070 hc         1 GHX       0.065200
     41 H9           3.7650    -1.1500     1.7920 h1         1 GHX       0.096700
     42 H10          5.1410     0.4210     3.1610 h4         1 GHX      -0.004800
     43 H13          2.8280     1.0170     0.0330 hn         1 GHX       0.321500
     44 H14          0.6730     1.0180    -0.5380 h1         1 GHX       0.091700
     45 H15         -0.1570     1.7860     2.2980 hc         1 GHX       0.066200
     46 H16          0.9930     2.6540     1.2920 hc         1 GHX       0.066200
     47 H17          0.2050     3.8850    -0.7330 ha         1 GHX       0.110500
     48 H18         -1.6640     5.0530    -1.8350 ha         1 GHX       0.111500
     49 H19         -3.9910     4.6390    -1.1050 ha         1 GHX       0.112000
     50 H20         -4.4320     3.0650     0.7540 ha         1 GHX       0.111500
     51 H21         -2.5590     1.9180     1.8710 ha         1 GHX       0.110500
     52 H22         -1.1450    -0.4760     1.2520 hn         1 GHX       0.341500
     53 H23         -3.8870     0.1590    -1.8830 h1         1 GHX       0.056200
     54 H24         -3.2900    -1.4480    -2.3170 h1         1 GHX       0.056200
     55 H25         -4.3960    -3.4570    -1.4800 ha         1 GHX       0.114500
     56 H26         -6.4160    -4.4660    -0.4870 ha         1 GHX       0.114000
     57 H27         -8.0890    -3.0330     0.6400 ha         1 GHX       0.113000
     58 H28         -7.7320    -0.5890     0.7670 ha         1 GHX       0.114000
     59 H29         -5.7110     0.4170    -0.2260 ha         1 GHX       0.114500
@<TRIPOS>BOND
     1     1     2 2   
     2     2     3 1   
     3     2     6 1   
     4     3     4 1   
     5     3    33 1   
     6     4     5 1   
     7     4    34 1   
     8     4    35 1   
     9     5     6 1   
    10     5    36 1   
    11     5    37 1   
    12     6     7 1   
    13     6    38 1   
    14     7     8 1   
    15     7    39 1   
    16     7    40 1   
    17     8     9 1   
    18     8    11 1   
    19     8    41 1   
    20     9    10 2   
    21     9    42 1   
    22    11    12 1   
    23    11    43 1   
    24    12    13 2   
    25    12    14 1   
    26    14    15 1   
    27    14    22 1   
    28    14    44 1   
    29    15    16 1   
    30    15    45 1   
    31    15    46 1   
    32    16    17 ar  
    33    16    21 ar  
    34    17    18 ar  
    35    17    47 1   
    36    18    19 ar  
    37    18    48 1   
    38    19    20 ar  
    39    19    49 1   
    40    20    21 ar  
    41    20    50 1   
    42    21    51 1   
    43    22    23 1   
    44    22    52 1   
    45    23    24 2   
    46    23    25 1   
    47    25    26 1   
    48    26    27 1   
    49    26    53 1   
    50    26    54 1   
    51    27    28 ar  
    52    27    32 ar  
    53    28    29 ar  
    54    28    55 1   
    55    29    30 ar  
    56    29    56 1   
    57    30    31 ar  
    58    30    57 1   
    59    31    32 ar  
    60    31    58 1   
    61    32    59 1   
@<TRIPOS>SUBSTRUCTURE
     1 GHX         1 TEMP              0 ****  ****    0 ROOT
