@<TRIPOS>MOLECULE
GHY
   55    56     1     0     0
SMALL
abcg2


@<TRIPOS>ATOM
      1 O25         -0.6060     0.4810     2.2270 o          1 GHY      -0.596100
      2 C23         -0.6160    -0.1350     1.1750 c          1 GHY       0.595100
      3 C15          0.6710    -0.4970     0.4440 c3         1 GHY       0.049700
      4 C16          1.1370    -1.8890     0.9230 c3         1 GHY      -0.051100
      5 C17          2.3930    -2.3110     0.2200 ca         1 GHY      -0.085300
      6 C22          3.6440    -2.0320     0.7630 ca         1 GHY      -0.098000
      7 C21          4.8060    -2.3740     0.0840 ca         1 GHY      -0.107000
      8 C20          4.7310    -3.0050    -1.1500 ca         1 GHY      -0.106000
      9 C19          3.4870    -3.2930    -1.7000 ca         1 GHY      -0.107000
     10 C18          2.3300    -2.9450    -1.0190 ca         1 GHY      -0.098000
     11 N13          1.6660     0.5060     0.6860 ns         1 GHY      -0.489900
     12 C12          2.4460     1.0160    -0.2910 c          1 GHY       0.650100
     13 O11          3.3910     1.7960     0.2370 os         1 GHY      -0.467100
     14 C10          4.2960     2.4830    -0.6470 c3         1 GHY       0.198300
     15 C1           3.6620     3.7610    -1.1630 c3         1 GHY      -0.107100
     16 C5           5.5530     2.7490     0.1580 c3         1 GHY      -0.107100
     17 O14          2.3040     0.8090    -1.4780 o          1 GHY      -0.546000
     18 N24         -1.7390    -0.5810     0.5840 ns         1 GHY      -0.488900
     19 C26         -3.0150    -0.5660     1.2400 c3         1 GHY      -0.019300
     20 C27         -3.1730    -1.7340     2.1890 c          1 GHY       0.555900
     21 O28         -2.3230    -2.5580     2.3970 o          1 GHY      -0.500100
     22 C29         -4.1680    -0.5530     0.2340 c3         1 GHY      -0.061400
     23 C30         -4.1240     0.6650    -0.6760 c5         1 GHY      -0.154700
     24 C31         -4.1820     2.0170     0.0340 c5         1 GHY      -0.092400
     25 C32         -4.8730     2.9320    -0.9790 c5         1 GHY       0.099000
     26 N33         -5.6850     2.0010    -1.7330 ns         1 GHY      -0.511900
     27 C34         -5.3070     0.7180    -1.6320 c          1 GHY       0.560000
     28 O1          -5.8090    -0.2340    -2.2090 o          1 GHY      -0.554000
     29 H1           0.4890    -0.5370    -0.6310 h1         1 GHY       0.093700
     30 H2           1.2980    -1.8540     2.0040 hc         1 GHY       0.065700
     31 H3           0.3370    -2.6120     0.7480 hc         1 GHY       0.065700
     32 H4           3.7120    -1.5450     1.7290 ha         1 GHY       0.109000
     33 H5           5.7710    -2.1500     0.5200 ha         1 GHY       0.112000
     34 H6           5.6360    -3.2740    -1.6800 ha         1 GHY       0.111000
     35 H7           3.4190    -3.7910    -2.6590 ha         1 GHY       0.112000
     36 H8           1.3630    -3.1670    -1.4560 ha         1 GHY       0.109000
     37 H9           1.8900     0.7250     1.6440 hn         1 GHY       0.340500
     38 H10          4.5400     1.8280    -1.4870 h1         1 GHY       0.065700
     39 H11          3.4010     4.4290    -0.3400 hc         1 GHY       0.046700
     40 H12          4.3670     4.2850    -1.8090 hc         1 GHY       0.046700
     41 H13          2.7630     3.5620    -1.7470 hc         1 GHY       0.046700
     42 H14          5.9970     1.8220     0.5230 hc         1 GHY       0.046700
     43 H15          6.2900     3.2480    -0.4710 hc         1 GHY       0.046700
     44 H16          5.3490     3.3960     1.0120 hc         1 GHY       0.046700
     45 H17         -1.6520    -1.1510    -0.2440 hn         1 GHY       0.321500
     46 H18         -3.0900     0.3330     1.8610 h1         1 GHY       0.097700
     47 H19         -4.1520    -1.7700     2.6970 h4         1 GHY      -0.005800
     48 H22         -4.1500    -1.4680    -0.3630 hc         1 GHY       0.064700
     49 H23         -5.1070    -0.5580     0.7940 hc         1 GHY       0.064700
     50 H24         -3.2240     0.6180    -1.3030 hc         1 GHY       0.082700
     51 H25         -4.7950     1.9380     0.9360 hc         1 GHY       0.061700
     52 H26         -3.2040     2.3950     0.3250 hc         1 GHY       0.061700
     53 H27         -5.4890     3.6940    -0.5020 h1         1 GHY       0.048200
     54 H28         -4.1510     3.4390    -1.6250 h1         1 GHY       0.048200
     55 H29         -6.3870     2.3020    -2.3920 hn         1 GHY       0.330500
@<TRIPOS>BOND
     1     1     2 2   
     2     2     3 1   
     3     2    18 1   
     4     3     4 1   
     5     3    11 1   
     6     3    29 1   
     7     4     5 1   
     8     4    30 1   
     9     4    31 1   
    10     5     6 ar  
    11     5    10 ar  
    12     6     7 ar  
    13     6    32 1   
    14     7     8 ar  
    15     7    33 1   
    16     8     9 ar  
    17     8    34 1   
    18     9    10 ar  
    19     9    35 1   
    20    10    36 1   
    21    11    12 1   
    22    11    37 1   
    23    12    13 1   
    24    12    17 2   
    25    13    14 1   
    26    14    15 1   
    27    14    16 1   
    28    14    38 1   
    29    15    39 1   
    30    15    40 1   
    31    15    41 1   
    32    16    42 1   
    33    16    43 1   
    34    16    44 1   
    35    18    19 1   
    36    18    45 1   
    37    19    20 1   
    38    19    22 1   
    39    19    46 1   
    40    20    21 2   
    41    20    47 1   
    42    22    23 1   
    43    22    48 1   
    44    22    49 1   
    45    23    24 1   
    46    23    27 1   
    47    23    50 1   
    48    24    25 1   
    49    24    51 1   
    50    24    52 1   
    51    25    26 1   
    52    25    53 1   
    53    25    54 1   
    54    26    27 1   
    55    26    55 1   
    56    27    28 2   
@<TRIPOS>SUBSTRUCTURE
     1 GHY         1 TEMP              0 ****  ****    0 ROOT
