@<TRIPOS>MOLECULE
GHY
   55    56     1     0     0
SMALL
No Charge or Current Charge


@<TRIPOS>ATOM
      1 O25         -0.9790     0.6640     1.6760 o          1 GHY      -0.596100
      2 C23         -0.8100    -0.3190     0.9660 c          1 GHY       0.595100
      3 C15          0.5600    -0.6770     0.3230 c3         1 GHY       0.049700
      4 C16          1.1860    -1.9320     0.9890 c3         1 GHY      -0.051100
      5 C17          2.5290    -2.3330     0.3880 ca         1 GHY      -0.085300
      6 C22          3.7330    -1.9580     1.0170 ca         1 GHY      -0.098000
      7 C21          4.9690    -2.3200     0.4560 ca         1 GHY      -0.107000
      8 C20          5.0100    -3.0630    -0.7360 ca         1 GHY      -0.106000
      9 C19          3.8130    -3.4420    -1.3670 ca         1 GHY      -0.107000
     10 C18          2.5760    -3.0780    -0.8070 ca         1 GHY      -0.098000
     11 N13          1.4820     0.4790     0.3950 ns         1 GHY      -0.489900
     12 C12          2.3680     0.8430    -0.5780 c          1 GHY       0.650100
     13 O11          3.0910     1.9080    -0.1290 os         1 GHY      -0.467100
     14 C10          4.0650     2.5030    -1.0040 c3         1 GHY       0.198300
     15 C1           3.3300     3.3900    -2.0340 c3         1 GHY      -0.107100
     16 C5           5.0210     3.3150    -0.1110 c3         1 GHY      -0.107100
     17 O14          2.4830     0.2980    -1.6650 o          1 GHY      -0.546000
     18 N24         -1.8370    -1.1990     0.6800 ns         1 GHY      -0.488900
     19 C26         -3.2400    -1.0680     1.1480 c3         1 GHY      -0.019300
     20 C27         -3.7740    -2.4270     1.6720 c          1 GHY       0.555900
     21 O28         -3.1800    -3.4950     1.5440 o          1 GHY      -0.500100
     22 C29         -4.1630    -0.4960     0.0400 c3         1 GHY      -0.061400
     23 C30         -3.8520     0.9630    -0.3960 c5         1 GHY      -0.154700
     24 C31         -4.0880     2.0450     0.6960 c5         1 GHY      -0.092400
     25 C32         -4.2050     3.3310    -0.1660 c5         1 GHY       0.099000
     26 N33         -4.9060     2.8040    -1.3350 ns         1 GHY      -0.511900
     27 C34         -4.7270     1.4650    -1.5530 c          1 GHY       0.560000
     28 O1          -5.3600     0.8330    -2.3840 o          1 GHY      -0.554000
     29 H1           0.3620    -0.9020    -0.7330 h1         1 GHY       0.093700
     30 H2           1.2970    -1.7430     2.0640 hc         1 GHY       0.065700
     31 H3           0.4850    -2.7720     0.9070 hc         1 GHY       0.065700
     32 H4           3.7110    -1.3790     1.9380 ha         1 GHY       0.109000
     33 H5           5.8950    -2.0250     0.9440 ha         1 GHY       0.112000
     34 H6           5.9670    -3.3430    -1.1710 ha         1 GHY       0.111000
     35 H7           3.8430    -4.0150    -2.2910 ha         1 GHY       0.112000
     36 H8           1.6540    -3.3720    -1.3040 ha         1 GHY       0.109000
     37 H9           1.4790     1.0570     1.2260 hn         1 GHY       0.340500
     38 H10          4.6510     1.7340    -1.5270 h1         1 GHY       0.065700
     39 H11          2.7020     4.1340    -1.5290 hc         1 GHY       0.046700
     40 H12          4.0530     3.9220    -2.6630 hc         1 GHY       0.046700
     41 H13          2.6930     2.7880    -2.6930 hc         1 GHY       0.046700
     42 H14          5.5180     2.6590     0.6140 hc         1 GHY       0.046700
     43 H15          5.7950     3.7990    -0.7170 hc         1 GHY       0.046700
     44 H16          4.4770     4.0930     0.4390 hc         1 GHY       0.046700
     45 H17         -1.6000    -2.0020     0.1060 hn         1 GHY       0.321500
     46 H18         -3.2720    -0.3910     2.0120 h1         1 GHY       0.097700
     47 H19         -4.7570    -2.3810     2.1900 h4         1 GHY      -0.005800
     48 H22         -4.1040    -1.1590    -0.8330 hc         1 GHY       0.064700
     49 H23         -5.2040    -0.5480     0.3860 hc         1 GHY       0.064700
     50 H24         -2.8130     1.0370    -0.7340 hc         1 GHY       0.082700
     51 H25         -5.0200     1.8620     1.2440 hc         1 GHY       0.061700
     52 H26         -3.2800     2.1060     1.4340 hc         1 GHY       0.061700
     53 H27         -4.7650     4.1230     0.3480 h1         1 GHY       0.048200
     54 H28         -3.2150     3.7240    -0.4380 h1         1 GHY       0.048200
     55 H29         -5.5310     3.3220    -1.9420 hn         1 GHY       0.330500
@<TRIPOS>BOND
     1     1     2 2   
     2     2     3 1   
     3     2    18 1   
     4     3     4 1   
     5     3    11 1   
     6     3    29 1   
     7     4     5 1   
     8     4    30 1   
     9     4    31 1   
    10     5     6 ar  
    11     5    10 ar  
    12     6     7 ar  
    13     6    32 1   
    14     7     8 ar  
    15     7    33 1   
    16     8     9 ar  
    17     8    34 1   
    18     9    10 ar  
    19     9    35 1   
    20    10    36 1   
    21    11    12 1   
    22    11    37 1   
    23    12    13 1   
    24    12    17 2   
    25    13    14 1   
    26    14    15 1   
    27    14    16 1   
    28    14    38 1   
    29    15    39 1   
    30    15    40 1   
    31    15    41 1   
    32    16    42 1   
    33    16    43 1   
    34    16    44 1   
    35    18    19 1   
    36    18    45 1   
    37    19    20 1   
    38    19    22 1   
    39    19    46 1   
    40    20    21 2   
    41    20    47 1   
    42    22    23 1   
    43    22    48 1   
    44    22    49 1   
    45    23    24 1   
    46    23    27 1   
    47    23    50 1   
    48    24    25 1   
    49    24    51 1   
    50    24    52 1   
    51    25    26 1   
    52    25    53 1   
    53    25    54 1   
    54    26    27 1   
    55    26    55 1   
    56    27    28 2   
@<TRIPOS>SUBSTRUCTURE
     1 GHY         1 TEMP              0 ****  ****    0 ROOT
