@<TRIPOS>MOLECULE
GHZ
   58    59     1     0     0
SMALL
abcg2


@<TRIPOS>ATOM
      1 O25          1.0650    -2.1230     1.1840 o          1 GHZ      -0.589100
      2 C23          1.2230    -0.9470     0.9030 c          1 GHZ       0.612100
      3 C15          0.0390    -0.0120     0.6950 c3         1 GHZ       0.048700
      4 C16         -0.3240     0.6400     2.0490 c3         1 GHZ      -0.057100
      5 C17         -1.5180     1.5380     1.9100 ca         1 GHZ      -0.083300
      6 C22         -2.8070     1.0450     2.0950 ca         1 GHZ      -0.099000
      7 C21         -3.9140     1.8540     1.8790 ca         1 GHZ      -0.106500
      8 C20         -3.7470     3.1740     1.4840 ca         1 GHZ      -0.106000
      9 C19         -2.4640     3.6790     1.3080 ca         1 GHZ      -0.106500
     10 C18         -1.3610     2.8640     1.5160 ca         1 GHZ      -0.099000
     11 N13         -1.0630    -0.7540     0.1520 ns         1 GHZ      -0.478900
     12 C12         -1.9290    -0.2140    -0.7330 c          1 GHZ       0.648100
     13 O11         -3.0050    -0.9940    -0.8610 os         1 GHZ      -0.461100
     14 C10         -4.0580    -0.5360    -1.7070 c3         1 GHZ       0.186600
     15 C1          -5.2440    -1.4720    -1.5460 c3         1 GHZ      -0.068700
     16 O14         -1.7540     0.8140    -1.3510 o          1 GHZ      -0.545000
     17 N24          2.4220    -0.3580     0.8040 ns         1 GHZ      -0.488900
     18 C26          3.6540    -1.0350     1.0920 c3         1 GHZ      -0.011300
     19 C27          3.9910    -0.9710     2.5660 c          1 GHZ       0.555900
     20 O28          3.3100    -0.4320     3.3970 o          1 GHZ      -0.499100
     21 C29          4.8090    -0.4650     0.2650 c3         1 GHZ      -0.066400
     22 C30          4.9100    -0.9930    -1.1720 c5         1 GHZ      -0.154700
     23 C31          5.8420    -0.1170    -2.0130 c5         1 GHZ      -0.095400
     24 C32          4.9020     0.9300    -2.6190 c5         1 GHZ       0.102000
     25 N33          3.6480     0.2100    -2.6880 ns         1 GHZ      -0.521900
     26 C34          3.5960    -0.9050    -1.9400 c          1 GHZ       0.562000
     27 O1           2.6730    -1.7010    -1.8960 o          1 GHZ      -0.531000
     28 C2          -5.7580    -1.4960    -0.1100 c3         1 GHZ      -0.086600
     29 C3          -6.3410    -1.0400    -2.5150 c3         1 GHZ      -0.086600
     30 H1           0.3000     0.7740    -0.0150 h1         1 GHZ       0.089700
     31 H2          -0.5230    -0.1510     2.7760 hc         1 GHZ       0.063700
     32 H3           0.5400     1.1980     2.4170 hc         1 GHZ       0.063700
     33 H4          -2.9510     0.0170     2.4080 ha         1 GHZ       0.109000
     34 H5          -4.9090     1.4530     2.0240 ha         1 GHZ       0.110500
     35 H6          -4.6090     3.8070     1.3180 ha         1 GHZ       0.111000
     36 H7          -2.3230     4.7090     1.0060 ha         1 GHZ       0.110500
     37 H8          -0.3650     3.2640     1.3650 ha         1 GHZ       0.109000
     38 H9          -1.3420    -1.5890     0.6430 hn         1 GHZ       0.339500
     39 H10         -4.3490     0.4820    -1.4300 h1         1 GHZ       0.048700
     40 H11         -3.7210    -0.5210    -2.7480 h1         1 GHZ       0.048700
     41 H12         -4.9240    -2.4820    -1.8230 hc         1 GHZ       0.060700
     42 H13          2.4680     0.6300     0.6100 hn         1 GHZ       0.316500
     43 H14          3.5420    -2.0990     0.8570 h1         1 GHZ       0.113700
     44 H15          4.9340    -1.4820     2.8310 h4         1 GHZ      -0.010800
     45 H18          4.7430     0.6280     0.2760 hc         1 GHZ       0.049700
     46 H19          5.7540    -0.7090     0.7570 hc         1 GHZ       0.049700
     47 H20          5.2340    -2.0350    -1.1360 hc         1 GHZ       0.086700
     48 H21          6.6480     0.3340    -1.4340 hc         1 GHZ       0.059700
     49 H22          6.2940    -0.7100    -2.8080 hc         1 GHZ       0.059700
     50 H23          4.8180     1.8210    -1.9900 h1         1 GHZ       0.044700
     51 H24         -6.0500    -0.4940     0.2150 hc         1 GHZ       0.035867
     52 H25         -6.6330    -2.1410    -0.0240 hc         1 GHZ       0.035867
     53 H26         -5.0070    -1.8650     0.5880 hc         1 GHZ       0.035867
     54 H27         -5.9810    -1.0150    -3.5450 hc         1 GHZ       0.035867
     55 H28         -7.1840    -1.7310    -2.4780 hc         1 GHZ       0.035867
     56 H29         -6.7170    -0.0450    -2.2680 hc         1 GHZ       0.035867
     57 H16          5.2240     1.2520    -3.6090 h1         1 GHZ       0.044700
     58 H17          2.8700     0.5190    -3.2490 hn         1 GHZ       0.334500
@<TRIPOS>BOND
     1     1     2 2   
     2     2     3 1   
     3     2    17 1   
     4     3     4 1   
     5     3    11 1   
     6     3    30 1   
     7     4     5 1   
     8     4    31 1   
     9     4    32 1   
    10     5     6 ar  
    11     5    10 ar  
    12     6     7 ar  
    13     6    33 1   
    14     7     8 ar  
    15     7    34 1   
    16     8     9 ar  
    17     8    35 1   
    18     9    10 ar  
    19     9    36 1   
    20    10    37 1   
    21    11    12 1   
    22    11    38 1   
    23    12    13 1   
    24    12    16 2   
    25    13    14 1   
    26    14    15 1   
    27    14    39 1   
    28    14    40 1   
    29    15    28 1   
    30    15    29 1   
    31    15    41 1   
    32    17    18 1   
    33    17    42 1   
    34    18    19 1   
    35    18    21 1   
    36    18    43 1   
    37    19    20 2   
    38    19    44 1   
    39    21    22 1   
    40    21    45 1   
    41    21    46 1   
    42    22    23 1   
    43    22    26 1   
    44    22    47 1   
    45    23    24 1   
    46    23    48 1   
    47    23    49 1   
    48    24    25 1   
    49    24    50 1   
    50    24    57 1   
    51    25    26 1   
    52    25    58 1   
    53    26    27 2   
    54    28    51 1   
    55    28    52 1   
    56    28    53 1   
    57    29    54 1   
    58    29    55 1   
    59    29    56 1   
@<TRIPOS>SUBSTRUCTURE
     1 GHZ         1 TEMP              0 ****  ****    0 ROOT
