@<TRIPOS>MOLECULE
GHZ
   58    59     1     0     0
SMALL
No Charge or Current Charge


@<TRIPOS>ATOM
      1 O25          1.2060    -1.9340     0.7260 o          1 GHZ      -0.589100
      2 C23          1.2560    -0.7210     0.8910 c          1 GHZ       0.612100
      3 C15          0.0080     0.2040     0.7910 c3         1 GHZ       0.048700
      4 C16         -0.3680     0.7970     2.1760 c3         1 GHZ      -0.057100
      5 C17         -1.5960     1.7020     2.1380 ca         1 GHZ      -0.083300
      6 C22         -2.8630     1.2000     2.4960 ca         1 GHZ      -0.099000
      7 C21         -3.9950     2.0320     2.4480 ca         1 GHZ      -0.106500
      8 C20         -3.8670     3.3710     2.0440 ca         1 GHZ      -0.106000
      9 C19         -2.6060     3.8780     1.6880 ca         1 GHZ      -0.106500
     10 C18         -1.4740     3.0450     1.7340 ca         1 GHZ      -0.099000
     11 N13         -1.1340    -0.5270     0.1970 ns         1 GHZ      -0.478900
     12 C12         -2.0500     0.0090    -0.6620 c          1 GHZ       0.648100
     13 O11         -2.9970    -0.9310    -0.9300 os         1 GHZ      -0.461100
     14 C10         -4.0810    -0.5540    -1.7960 c3         1 GHZ       0.186600
     15 C1          -5.0560    -1.7520    -1.9060 c3         1 GHZ      -0.068700
     16 O14         -2.0190     1.1430    -1.1140 o          1 GHZ      -0.545000
     17 N24          2.4410    -0.0770     1.1990 ns         1 GHZ      -0.488900
     18 C26          3.7550    -0.7450     1.3630 c3         1 GHZ      -0.011300
     19 C27          4.4340    -0.3040     2.6860 c          1 GHZ       0.555900
     20 O28          4.0330     0.6180     3.3920 o          1 GHZ      -0.499100
     21 C29          4.7030    -0.5280     0.1520 c3         1 GHZ      -0.066400
     22 C30          4.1680    -0.9770    -1.2450 c5         1 GHZ      -0.154700
     23 C31          5.2930    -1.1840    -2.3000 c5         1 GHZ      -0.095400
     24 C32          5.5070     0.2620    -2.8240 c5         1 GHZ       0.102000
     25 N33          4.1350     0.7620    -2.7890 ns         1 GHZ      -0.521900
     26 C34          3.3110     0.1170    -1.9060 c          1 GHZ       0.562000
     27 O1           2.1050     0.2880    -1.8790 o          1 GHZ      -0.531000
     28 C2          -5.6870    -2.1250    -0.5410 c3         1 GHZ      -0.086600
     29 C3          -6.1480    -1.4850    -2.9670 c3         1 GHZ      -0.086600
     30 H1           0.2830     1.0280     0.1210 h1         1 GHZ       0.089700
     31 H2          -0.5340    -0.0280     2.8810 hc         1 GHZ       0.063700
     32 H3           0.4850     1.3600     2.5740 hc         1 GHZ       0.063700
     33 H4          -2.9730     0.1630     2.8050 ha         1 GHZ       0.109000
     34 H5          -4.9710     1.6380     2.7220 ha         1 GHZ       0.110500
     35 H6          -4.7430     4.0150     2.0060 ha         1 GHZ       0.111000
     36 H7          -2.5050     4.9140     1.3730 ha         1 GHZ       0.110500
     37 H8          -0.5020     3.4440     1.4510 ha         1 GHZ       0.109000
     38 H9          -1.2770    -1.4980     0.4450 hn         1 GHZ       0.339500
     39 H10         -4.6160     0.3180    -1.3970 h1         1 GHZ       0.048700
     40 H11         -3.7010    -0.2980    -2.7940 h1         1 GHZ       0.048700
     41 H12         -4.4760    -2.6170    -2.2500 hc         1 GHZ       0.060700
     42 H13          2.3910     0.9260     1.3390 hn         1 GHZ       0.316500
     43 H14          3.5950    -1.8260     1.4720 h1         1 GHZ       0.113700
     44 H15          5.3350    -0.8900     2.9730 h4         1 GHZ      -0.010800
     45 H18          4.9970     0.5290     0.1150 hc         1 GHZ       0.049700
     46 H19          5.6260    -1.0820     0.3670 hc         1 GHZ       0.049700
     47 H20          3.5580    -1.8730    -1.0900 hc         1 GHZ       0.086700
     48 H21          6.2070    -1.6300    -1.8920 hc         1 GHZ       0.059700
     49 H22          4.9480    -1.8390    -3.1090 hc         1 GHZ       0.059700
     50 H23          6.1610     0.8410    -2.1590 h1         1 GHZ       0.044700
     51 H24         -6.2640    -1.2850    -0.1360 hc         1 GHZ       0.035867
     52 H25         -6.3610    -2.9830    -0.6480 hc         1 GHZ       0.035867
     53 H26         -4.9160    -2.3950     0.1890 hc         1 GHZ       0.035867
     54 H27         -5.6960    -1.2750    -3.9440 hc         1 GHZ       0.035867
     55 H28         -6.8030    -2.3580    -3.0780 hc         1 GHZ       0.035867
     56 H29         -6.7670    -0.6260    -2.6830 hc         1 GHZ       0.035867
     57 H16          5.9400     0.2730    -3.8340 h1         1 GHZ       0.044700
     58 H17          3.7410     1.4700    -3.3980 hn         1 GHZ       0.334500
@<TRIPOS>BOND
     1     1     2 2   
     2     2     3 1   
     3     2    17 1   
     4     3     4 1   
     5     3    11 1   
     6     3    30 1   
     7     4     5 1   
     8     4    31 1   
     9     4    32 1   
    10     5     6 ar  
    11     5    10 ar  
    12     6     7 ar  
    13     6    33 1   
    14     7     8 ar  
    15     7    34 1   
    16     8     9 ar  
    17     8    35 1   
    18     9    10 ar  
    19     9    36 1   
    20    10    37 1   
    21    11    12 1   
    22    11    38 1   
    23    12    13 1   
    24    12    16 2   
    25    13    14 1   
    26    14    15 1   
    27    14    39 1   
    28    14    40 1   
    29    15    28 1   
    30    15    29 1   
    31    15    41 1   
    32    17    18 1   
    33    17    42 1   
    34    18    19 1   
    35    18    21 1   
    36    18    43 1   
    37    19    20 2   
    38    19    44 1   
    39    21    22 1   
    40    21    45 1   
    41    21    46 1   
    42    22    23 1   
    43    22    26 1   
    44    22    47 1   
    45    23    24 1   
    46    23    48 1   
    47    23    49 1   
    48    24    25 1   
    49    24    50 1   
    50    24    57 1   
    51    25    26 1   
    52    25    58 1   
    53    26    27 2   
    54    28    51 1   
    55    28    52 1   
    56    28    53 1   
    57    29    54 1   
    58    29    55 1   
    59    29    56 1   
@<TRIPOS>SUBSTRUCTURE
     1 GHZ         1 TEMP              0 ****  ****    0 ROOT
