@<TRIPOS>MOLECULE
GI0
   55    59     1     0     0
SMALL
abcg2


@<TRIPOS>ATOM
      1 C16        -38.8100    40.0260    -3.4750 cc         1 GI0       0.418500
      2 C19        -37.4180    39.6610    -3.6400 cc         1 GI0      -0.213500
      3 C29        -36.3550    40.2990    -4.2280 cd         1 GI0      -0.077300
      4 C17        -39.3470    41.2580    -3.6870 cd         1 GI0      -0.285000
      5 C14        -40.8890    39.5310    -2.9240 cd         1 GI0       0.750300
      6 C13        -42.4840    37.0920    -0.8820 c6         1 GI0       0.161800
      7 C27        -35.0730    41.5810    -5.8990 c6         1 GI0      -0.065400
      8 C26        -33.7950    41.1660    -5.1720 c6         1 GI0      -0.175400
      9 C24        -33.8940    39.8040    -4.5140 c          1 GI0       0.619700
     10 C23        -35.2220    39.4520    -4.0610 cd         1 GI0      -0.272600
     11 C12        -41.9060    37.4160    -2.2610 c6         1 GI0       0.224800
     12 C21        -35.6370    38.3080    -3.3830 cc         1 GI0      -0.068300
     13 C02        -43.4440    35.9170     2.3210 cc         1 GI0      -0.191300
     14 C03        -42.7510    36.2030     3.4770 cd         1 GI0      -0.176000
     15 C06        -43.7140    37.1870     1.7650 cc         1 GI0       0.239300
     16 C09        -44.2240    38.5410    -1.6870 c6         1 GI0       0.161800
     17 C10        -43.2710    39.4600    -2.4410 c6         1 GI0       0.224800
     18 C28        -36.2770    41.5960    -4.9590 c6         1 GI0      -0.007100
     19 N04        -42.6490    37.5410     3.5440 na         1 GI0      -0.001200
     20 N05        -43.2260    38.1570     2.5230 nd         1 GI0      -0.492800
     21 N08        -43.5400    38.0270    -0.5210 n3         1 GI0      -0.721600
     22 N11        -41.9620    38.8400    -2.5160 nh         1 GI0      -0.768300
     23 N15        -39.6820    39.0580    -3.0470 nc         1 GI0      -0.778000
     24 N20        -36.9490    38.4620    -3.1480 na         1 GI0      -0.077000
     25 O25        -32.9140    39.0920    -4.3610 o          1 GI0      -0.558100
     26 S18        -41.0440    41.2200    -3.3550 ss         1 GI0      -0.110400
     27 H1         -38.8620    42.1750    -3.9780 h4         1 GI0       0.162000
     28 H2         -42.8460    36.0520    -0.9150 h1         1 GI0       0.042700
     29 H3         -41.6960    37.1300    -0.1270 h1         1 GI0       0.042700
     30 H4         -34.0570    37.3640    -2.2980 hc         1 GI0       0.055700
     31 H5         -35.5320    36.4040    -2.4240 hc         1 GI0       0.055700
     32 H6         -34.4600    36.5780    -3.8130 hc         1 GI0       0.055700
     33 H7         -34.9360    42.5650    -6.3480 hc         1 GI0       0.044200
     34 H8         -35.2650    40.8840    -6.7190 hc         1 GI0       0.044200
     35 H9         -32.9360    41.1750    -5.8450 hc         1 GI0       0.063700
     36 H10        -33.5760    41.8920    -4.3790 hc         1 GI0       0.063700
     37 H11        -42.4620    36.8880    -3.0410 h1         1 GI0       0.055950
     38 H12        -40.8750    37.0800    -2.3240 h1         1 GI0       0.055950
     39 H13        -43.3700    34.3900     0.8080 hc         1 GI0       0.037033
     40 H14        -43.4770    33.7820     2.4540 hc         1 GI0       0.037033
     41 H15        -44.8950    34.4670     1.6720 hc         1 GI0       0.037033
     42 H16        -42.3360    35.5580     4.2350 h4         1 GI0       0.154000
     43 H17        -45.2090    38.2430     0.6800 h1         1 GI0       0.041700
     44 H18        -44.9510    36.5860     0.1460 h1         1 GI0       0.041700
     45 H19        -45.0850    39.1310    -1.3710 h1         1 GI0       0.042700
     46 H20        -44.6150    37.7510    -2.3470 h1         1 GI0       0.042700
     47 H21        -43.1900    40.4040    -1.8930 h1         1 GI0       0.055950
     48 H22        -43.6680    39.6830    -3.4380 h1         1 GI0       0.055950
     49 H23        -36.1770    42.4290    -4.2530 hc         1 GI0       0.048700
     50 H24        -37.1930    41.7820    -5.5250 hc         1 GI0       0.048700
     51 H25        -42.2080    38.0810     4.2710 hn         1 GI0       0.374000
     52 H27        -37.5350    37.7890    -2.6750 hn         1 GI0       0.363000
     53 C22        -34.8850    37.1010    -2.9560 c3         1 GI0      -0.032800
     54 C07        -44.4340    37.4960     0.4900 c3         1 GI0       0.156500
     55 C01        -43.8150    34.5750     1.7880 c3         1 GI0      -0.007800
@<TRIPOS>BOND
     1     1     2 1   
     2     1     4 2   
     3     1    23 1   
     4     2     3 2   
     5     2    24 1   
     6     3    10 1   
     7     3    18 1   
     8     4    26 1   
     9     4    27 1   
    10     5    22 1   
    11     5    23 2   
    12     5    26 1   
    13     6    11 1   
    14     6    21 1   
    15     6    28 1   
    16     6    29 1   
    17     7     8 1   
    18     7    18 1   
    19     7    33 1   
    20     7    34 1   
    21     8     9 1   
    22     8    35 1   
    23     8    36 1   
    24     9    10 1   
    25     9    25 2   
    26    10    12 2   
    27    11    22 1   
    28    11    37 1   
    29    11    38 1   
    30    12    24 1   
    31    12    53 1   
    32    13    14 2   
    33    13    15 1   
    34    13    55 1   
    35    14    19 1   
    36    14    42 1   
    37    15    20 2   
    38    15    54 1   
    39    16    17 1   
    40    16    21 1   
    41    16    45 1   
    42    16    46 1   
    43    17    22 1   
    44    17    47 1   
    45    17    48 1   
    46    18    49 1   
    47    18    50 1   
    48    19    20 1   
    49    19    51 1   
    50    21    54 1   
    51    24    52 1   
    52    30    53 1   
    53    31    53 1   
    54    32    53 1   
    55    39    55 1   
    56    40    55 1   
    57    41    55 1   
    58    43    54 1   
    59    44    54 1   
@<TRIPOS>SUBSTRUCTURE
     1 GI0         1 TEMP              0 ****  ****    0 ROOT
