@<TRIPOS>MOLECULE
GI0
   55    59     1     0     0
SMALL
No Charge or Current Charge


@<TRIPOS>ATOM
      1 C16        -38.6080    40.0300    -3.5960 cc         1 GI0       0.418500
      2 C19        -37.2240    39.6690    -3.7880 cc         1 GI0      -0.213500
      3 C29        -36.2740    40.1390    -4.6650 cd         1 GI0      -0.077300
      4 C17        -39.2340    41.0540    -4.2700 cd         1 GI0      -0.285000
      5 C14        -40.5730    39.8560    -2.6560 cd         1 GI0       0.750300
      6 C13        -42.3460    37.5260    -0.1810 c6         1 GI0       0.161800
      7 C27        -35.2320    40.9820    -6.8160 c6         1 GI0      -0.065400
      8 C26        -33.8500    40.8770    -6.1180 c6         1 GI0      -0.175400
      9 C24        -33.7780    39.7280    -5.0980 c          1 GI0       0.619700
     10 C23        -35.0580    39.4750    -4.3830 cd         1 GI0      -0.272600
     11 C12        -41.1630    38.4180    -0.6730 c6         1 GI0       0.224800
     12 C21        -35.2570    38.5640    -3.3690 cc         1 GI0      -0.068300
     13 C02        -44.1380    35.3380     2.0190 cc         1 GI0      -0.191300
     14 C03        -43.9320    35.0480     3.3350 cd         1 GI0      -0.176000
     15 C06        -44.4010    36.7270     1.9600 cc         1 GI0       0.239300
     16 C09        -43.9770    39.1140    -1.0590 c6         1 GI0       0.161800
     17 C10        -42.8390    40.0500    -1.5770 c6         1 GI0       0.224800
     18 C28        -36.3940    41.1440    -5.7970 c6         1 GI0      -0.007100
     19 N04        -44.0830    36.2650     4.0080 na         1 GI0      -0.001200
     20 N05        -44.3800    37.3150     3.1450 nd         1 GI0      -0.492800
     21 N08        -43.5780    38.3130     0.1360 n3         1 GI0      -0.721600
     22 N11        -41.5450    39.3290    -1.8020 nh         1 GI0      -0.768300
     23 N15        -39.3580    39.3500    -2.6710 nc         1 GI0      -0.778000
     24 N20        -36.6010    38.6880    -3.0150 na         1 GI0      -0.077000
     25 O25        -32.7500    39.0830    -4.9270 o          1 GI0      -0.558100
     26 S18        -40.9070    41.1930    -3.7560 ss         1 GI0      -0.110400
     27 H1         -38.8370    41.7410    -4.9990 h4         1 GI0       0.162000
     28 H2         -42.5670    36.7850    -0.9640 h1         1 GI0       0.042700
     29 H3         -42.0070    36.9660     0.7020 h1         1 GI0       0.042700
     30 H4         -33.4480    38.1470    -2.2740 hc         1 GI0       0.055700
     31 H5         -34.7850    37.0440    -1.9060 hc         1 GI0       0.055700
     32 H6         -33.9060    36.8870    -3.4360 hc         1 GI0       0.055700
     33 H7         -35.2370    41.8250    -7.5200 hc         1 GI0       0.044200
     34 H8         -35.4000    40.0770    -7.4160 hc         1 GI0       0.044200
     35 H9         -33.0130    40.8090    -6.8240 hc         1 GI0       0.063700
     36 H10        -33.7250    41.8010    -5.5390 hc         1 GI0       0.063700
     37 H11        -40.3420    37.7470    -0.9630 h1         1 GI0       0.055950
     38 H12        -40.8010    39.0180     0.1750 h1         1 GI0       0.055950
     39 H13        -43.3460    34.7020     0.1120 hc         1 GI0       0.037033
     40 H14        -43.8680    33.3760     1.1620 hc         1 GI0       0.037033
     41 H15        -45.0760    34.3710     0.3330 hc         1 GI0       0.037033
     42 H16        -43.7020    34.1130     3.8350 h4         1 GI0       0.154000
     43 H17        -45.5670    38.1180     0.8520 h1         1 GI0       0.041700
     44 H18        -45.0090    36.7540    -0.1020 h1         1 GI0       0.041700
     45 H19        -44.8550    39.7340    -0.8250 h1         1 GI0       0.042700
     46 H20        -44.2710    38.4420    -1.8790 h1         1 GI0       0.042700
     47 H21        -42.6870    40.8570    -0.8450 h1         1 GI0       0.055950
     48 H22        -43.1980    40.5210    -2.5030 h1         1 GI0       0.055950
     49 H23        -36.3990    42.1660    -5.3950 hc         1 GI0       0.048700
     50 H24        -37.3350    41.0060    -6.3440 hc         1 GI0       0.048700
     51 H25        -43.9960    36.4120     5.0140 hn         1 GI0       0.374000
     52 H27        -37.0690    38.1570    -2.2870 hn         1 GI0       0.363000
     53 C22        -34.2980    37.6080    -2.7100 c3         1 GI0      -0.032800
     54 C07        -44.6950    37.4760     0.6630 c3         1 GI0       0.156500
     55 C01        -44.1050    34.3970     0.8410 c3         1 GI0      -0.007800
@<TRIPOS>BOND
     1     1     2 1   
     2     1     4 2   
     3     1    23 1   
     4     2     3 2   
     5     2    24 1   
     6     3    10 1   
     7     3    18 1   
     8     4    26 1   
     9     4    27 1   
    10     5    22 1   
    11     5    23 2   
    12     5    26 1   
    13     6    11 1   
    14     6    21 1   
    15     6    28 1   
    16     6    29 1   
    17     7     8 1   
    18     7    18 1   
    19     7    33 1   
    20     7    34 1   
    21     8     9 1   
    22     8    35 1   
    23     8    36 1   
    24     9    10 1   
    25     9    25 2   
    26    10    12 2   
    27    11    22 1   
    28    11    37 1   
    29    11    38 1   
    30    12    24 1   
    31    12    53 1   
    32    13    14 2   
    33    13    15 1   
    34    13    55 1   
    35    14    19 1   
    36    14    42 1   
    37    15    20 2   
    38    15    54 1   
    39    16    17 1   
    40    16    21 1   
    41    16    45 1   
    42    16    46 1   
    43    17    22 1   
    44    17    47 1   
    45    17    48 1   
    46    18    49 1   
    47    18    50 1   
    48    19    20 1   
    49    19    51 1   
    50    21    54 1   
    51    24    52 1   
    52    30    53 1   
    53    31    53 1   
    54    32    53 1   
    55    39    55 1   
    56    40    55 1   
    57    41    55 1   
    58    43    54 1   
    59    44    54 1   
@<TRIPOS>SUBSTRUCTURE
     1 GI0         1 TEMP              0 ****  ****    0 ROOT
