@<TRIPOS>MOLECULE
GI1
   35    36     1     0     0
SMALL
No Charge or Current Charge


@<TRIPOS>ATOM
      1 C1          -1.1770     1.8090     0.5920 cc         1 GI1      -0.033600
      2 C2          -1.2750     0.3540     0.2190 c6         1 GI1       0.241600
      3 O2          -2.1400     0.1620    -0.9120 oh         1 GI1      -0.710000
      4 C3          -1.8080    -0.4280     1.4580 c6         1 GI1       0.127300
      5 O3          -1.7850    -1.8470     1.2140 oh         1 GI1      -0.645000
      6 C4          -0.9590    -0.0800     2.7230 c6         1 GI1       0.127300
      7 C80         -1.0390     3.6940     1.8340 cc         1 GI1      -0.158000
      8 N10         -1.0670     2.2950     1.8810 na         1 GI1       0.010300
      9 O4          -1.3850    -0.9180     3.8190 oh         1 GI1      -0.703000
     10 C5          -1.0940     1.4400     3.1000 c6         1 GI1       0.015300
     11 C6          -0.0560     1.8750     4.1810 c3         1 GI1       0.143600
     12 O6           1.3030     1.7470     3.7240 oh         1 GI1      -0.634000
     13 N1          -1.1960     2.9030    -0.2270 na         1 GI1      -0.033000
     14 C7          -1.1060     4.0710     0.5030 cd         1 GI1      -0.159300
     15 C8          -1.1250     5.4530    -0.1060 c3         1 GI1       0.462600
     16 O8           0.0400     6.1550     0.2850 oh         1 GI1      -0.640000
     17 O9          -1.1180     5.3060    -1.5310 os         1 GI1      -0.502000
     18 H2          -0.2640    -0.0190    -0.0110 h1         1 GI1       0.093700
     19 H1          -1.2860     2.8670    -1.2390 hn         1 GI1       0.426000
     20 HA          -2.3240    -0.8090    -0.9310 ho         1 GI1       0.564000
     21 H3          -2.8420    -0.1020     1.6500 h1         1 GI1       0.074700
     22 HB          -1.8300    -2.2530     2.1130 ho         1 GI1       0.487000
     23 H4           0.0960    -0.2860     2.4750 h1         1 GI1       0.080700
     24 HC          -0.6180    -1.0210     4.4340 ho         1 GI1       0.542000
     25 H5          -2.0890     1.5780     3.5460 h1         1 GI1       0.115700
     26 H80         -0.9860     4.3090     2.7270 h4         1 GI1       0.210000
     27 H6C1        -0.2130     1.2600     5.0780 h1         1 GI1       0.081200
     28 H6C2        -0.2670     2.9120     4.4790 h1         1 GI1       0.081200
     29 H6           1.4590     2.4540     3.0590 ho         1 GI1       0.448000
     30 H8          -2.0170     5.9960     0.2390 h2         1 GI1       0.105700
     31 HD           0.7740     5.6320    -0.0950 ho         1 GI1       0.465000
     32 H9C1        -2.2760     6.9930    -2.0140 h1         1 GI1       0.056033
     33 H9C2        -1.3280     6.3160    -3.3530 h1         1 GI1       0.056033
     34 H9C3        -0.5150     7.2480    -2.0820 h1         1 GI1       0.056033
     35 C9          -1.3180     6.5250    -2.2760 c3         1 GI1       0.144900
@<TRIPOS>BOND
     1     1     2 1   
     2     1     8 2   
     3     1    13 1   
     4     2     3 1   
     5     2     4 1   
     6     2    18 1   
     7     3    20 1   
     8     4     5 1   
     9     4     6 1   
    10     4    21 1   
    11     5    22 1   
    12     6     9 1   
    13     6    10 1   
    14     6    23 1   
    15     7     8 1   
    16     7    14 2   
    17     7    26 1   
    18     8    10 1   
    19     9    24 1   
    20    10    11 1   
    21    10    25 1   
    22    11    12 1   
    23    11    27 1   
    24    11    28 1   
    25    12    29 1   
    26    13    14 1   
    27    13    19 1   
    28    14    15 1   
    29    15    16 1   
    30    15    17 1   
    31    15    30 1   
    32    16    31 1   
    33    17    35 1   
    34    32    35 1   
    35    33    35 1   
    36    34    35 1   
@<TRIPOS>SUBSTRUCTURE
     1 GI1         1 TEMP              0 ****  ****    0 ROOT
