@<TRIPOS>MOLECULE
GI1
   35    36     1     0     0
SMALL
abcg2


@<TRIPOS>ATOM
      1 C1          -1.3250     1.8150     0.6650 cc         1 GI1      -0.033600
      2 C2          -1.4670     0.3740     0.3200 c6         1 GI1       0.241600
      3 O2          -2.4010     0.2960    -0.7140 oh         1 GI1      -0.710000
      4 C3          -1.8650    -0.3720     1.5880 c6         1 GI1       0.127300
      5 O3          -1.8100    -1.7360     1.2880 oh         1 GI1      -0.645000
      6 C4          -0.8900     0.0010     2.7090 c6         1 GI1       0.127300
      7 C80         -1.0470     3.6680     1.8160 cc         1 GI1      -0.158000
      8 N10         -1.1150     2.2950     1.8830 na         1 GI1       0.010300
      9 O4          -1.1730    -0.7650     3.8500 oh         1 GI1      -0.703000
     10 C5          -1.0250     1.4780     3.1000 c6         1 GI1       0.015300
     11 C6           0.1260     1.9530     3.9820 c3         1 GI1       0.143600
     12 O6           1.3770     1.8310     3.3610 oh         1 GI1      -0.634000
     13 N1          -1.3900     2.8380    -0.1710 na         1 GI1      -0.033000
     14 C7          -1.2180     4.0100     0.5170 cd         1 GI1      -0.159300
     15 C8          -1.2850     5.3620    -0.1280 c3         1 GI1       0.462600
     16 O8          -0.7340     6.3300     0.6940 oh         1 GI1      -0.640000
     17 O9          -0.6670     5.2300    -1.3630 os         1 GI1      -0.502000
     18 H2          -0.4790     0.0080    -0.0010 h1         1 GI1       0.093700
     19 H1          -1.5340     2.7550    -1.1690 hn         1 GI1       0.426000
     20 HA          -2.3190    -0.5640    -1.1390 ho         1 GI1       0.564000
     21 H3          -2.8820    -0.0610     1.8770 h1         1 GI1       0.074700
     22 HB          -2.1410    -2.2270     2.0470 ho         1 GI1       0.487000
     23 H4           0.1320    -0.1820     2.3540 h1         1 GI1       0.080700
     24 HC          -0.4130    -1.3120     4.0640 ho         1 GI1       0.542000
     25 H5          -1.9610     1.6130     3.6480 h1         1 GI1       0.115700
     26 H80         -0.9100     4.2870     2.6860 h4         1 GI1       0.210000
     27 H6C1         0.1270     1.3210     4.8710 h1         1 GI1       0.081200
     28 H6C2        -0.0680     2.9720     4.3320 h1         1 GI1       0.081200
     29 H6           1.5220     2.5830     2.7790 ho         1 GI1       0.448000
     30 H8          -2.3380     5.6520    -0.2510 h2         1 GI1       0.105700
     31 HD           0.1960     6.1260     0.8590 ho         1 GI1       0.465000
     32 H9C1        -1.9920     6.4520    -2.4050 h1         1 GI1       0.056033
     33 H9C2        -0.4730     6.0270    -3.2140 h1         1 GI1       0.056033
     34 H9C3        -0.4730     7.2350    -1.9190 h1         1 GI1       0.056033
     35 C9          -0.9190     6.2980    -2.2600 c3         1 GI1       0.144900
@<TRIPOS>BOND
     1     1     2 1   
     2     1     8 2   
     3     1    13 1   
     4     2     3 1   
     5     2     4 1   
     6     2    18 1   
     7     3    20 1   
     8     4     5 1   
     9     4     6 1   
    10     4    21 1   
    11     5    22 1   
    12     6     9 1   
    13     6    10 1   
    14     6    23 1   
    15     7     8 1   
    16     7    14 2   
    17     7    26 1   
    18     8    10 1   
    19     9    24 1   
    20    10    11 1   
    21    10    25 1   
    22    11    12 1   
    23    11    27 1   
    24    11    28 1   
    25    12    29 1   
    26    13    14 1   
    27    13    19 1   
    28    14    15 1   
    29    15    16 1   
    30    15    17 1   
    31    15    30 1   
    32    16    31 1   
    33    17    35 1   
    34    32    35 1   
    35    33    35 1   
    36    34    35 1   
@<TRIPOS>SUBSTRUCTURE
     1 GI1         1 TEMP              0 ****  ****    0 ROOT
