@<TRIPOS>MOLECULE
GI2
   36    37     1     0     0
SMALL
No Charge or Current Charge


@<TRIPOS>ATOM
      1 C1          -1.0140     5.4060    -0.3590 c3         1 GI2      -0.095100
      2 C2           0.3410     5.8150    -0.9380 c          1 GI2       0.594100
      3 C4           2.2470     7.2550    -0.6090 c3         1 GI2       0.149900
      4 C1B         -0.9330     1.7890     0.4810 cc         1 GI2      -0.040600
      5 C2B         -0.8850     0.3100     0.2030 c6         1 GI2       0.240600
      6 C3B         -1.5750    -0.4270     1.3900 c6         1 GI2       0.143300
      7 C4B         -0.9620     0.0520     2.7450 c6         1 GI2       0.119300
      8 C5B         -1.2260     1.5840     2.9820 c6         1 GI2       0.007300
      9 C6B         -0.3820     2.1430     4.1720 c3         1 GI2       0.143600
     10 O2B         -1.5340    -0.0060    -1.0400 oh         1 GI2      -0.705000
     11 O3B         -1.4360    -1.8530     1.2570 oh         1 GI2      -0.642000
     12 O4B         -1.5200    -0.7340     3.8190 oh         1 GI2      -0.700000
     13 N1B         -1.0580     2.3570     1.7170 na         1 GI2       0.027300
     14 O6B          1.0320     2.0780     3.9120 oh         1 GI2      -0.638000
     15 N2B         -0.8960     2.8370    -0.4200 na         1 GI2      -0.041000
     16 C7B         -1.0070     4.0420     0.2890 cc         1 GI2      -0.108300
     17 C8B         -1.1190     3.7310     1.6320 cd         1 GI2      -0.131000
     18 O1           0.9550     6.7800    -0.1810 os         1 GI2      -0.427100
     19 O5           0.8140     5.3270    -1.9560 o          1 GI2      -0.480000
     20 H1C1        -1.3140     6.1510     0.3870 hc         1 GI2       0.112700
     21 H1C2        -1.7430     5.4110    -1.1760 hc         1 GI2       0.112700
     22 H4C1         2.6210     8.0200     0.0830 h1         1 GI2       0.064033
     23 H4C2         2.1890     7.7020    -1.6100 h1         1 GI2       0.064033
     24 H4C3         2.9770     6.4360    -0.6360 h1         1 GI2       0.064033
     25 H2B          0.1700    -0.0080     0.1710 h1         1 GI2       0.092700
     26 HA          -0.8210     2.7360    -1.4280 hn         1 GI2       0.415000
     27 H3B         -2.6420    -0.1550     1.3900 h1         1 GI2       0.077700
     28 HB          -1.6500    -0.9880    -1.0260 ho         1 GI2       0.559000
     29 H4B          0.1260    -0.1090     2.6850 h1         1 GI2       0.063700
     30 HC          -1.6020    -2.2020     2.1650 ho         1 GI2       0.488000
     31 H5B         -2.2820     1.6930     3.2670 h1         1 GI2       0.113700
     32 HD          -0.8530    -0.7620     4.5470 ho         1 GI2       0.534000
     33 H6B1        -0.6340     1.5730     5.0770 h1         1 GI2       0.078200
     34 H6B2        -0.6890     3.1800     4.3640 h1         1 GI2       0.078200
     35 H6B          1.4920     2.4810     4.6840 ho         1 GI2       0.457000
     36 H8B         -1.2410     4.3790     2.4930 h4         1 GI2       0.207000
@<TRIPOS>BOND
     1     1     2 1   
     2     1    16 1   
     3     1    20 1   
     4     1    21 1   
     5     2    18 1   
     6     2    19 2   
     7     3    18 1   
     8     3    22 1   
     9     3    23 1   
    10     3    24 1   
    11     4     5 1   
    12     4    13 2   
    13     4    15 1   
    14     5     6 1   
    15     5    10 1   
    16     5    25 1   
    17     6     7 1   
    18     6    11 1   
    19     6    27 1   
    20     7     8 1   
    21     7    12 1   
    22     7    29 1   
    23     8     9 1   
    24     8    13 1   
    25     8    31 1   
    26     9    14 1   
    27     9    33 1   
    28     9    34 1   
    29    10    28 1   
    30    11    30 1   
    31    12    32 1   
    32    13    17 1   
    33    14    35 1   
    34    15    16 1   
    35    15    26 1   
    36    16    17 2   
    37    17    36 1   
@<TRIPOS>SUBSTRUCTURE
     1 GI2         1 TEMP              0 ****  ****    0 ROOT
