@<TRIPOS>MOLECULE
GI2
   36    37     1     0     0
SMALL
bcc


@<TRIPOS>ATOM
      1 C1          -0.7850     5.4220    -0.0510 c3         1 GI2      -0.095100
      2 C2           0.6380     5.6970    -0.4880 c          1 GI2       0.643100
      3 C4           2.0620     7.3470    -1.3740 c3         1 GI2       0.126700
      4 C1B         -1.0070     1.8810     0.6710 cc         1 GI2       0.010100
      5 C2B         -0.9820     0.4410     0.2880 c6         1 GI2       0.217400
      6 C3B         -1.5740    -0.3750     1.4310 c6         1 GI2       0.120100
      7 C4B         -0.9360     0.0660     2.7520 c6         1 GI2       0.096100
      8 C5B         -1.3240     1.5110     3.0910 c6         1 GI2      -0.022000
      9 C6B         -0.5590     2.0790     4.2840 c3         1 GI2       0.120400
     10 O2B         -1.6790     0.3190    -0.9170 oh         1 GI2      -0.582800
     11 O3B         -1.3070    -1.7170     1.1480 oh         1 GI2      -0.579800
     12 O4B         -1.4100    -0.7780     3.7670 oh         1 GI2      -0.577800
     13 N1B         -1.1170     2.3500     1.9050 na         1 GI2       0.005900
     14 O6B          0.8030     2.2710     4.0170 oh         1 GI2      -0.575800
     15 N2B         -0.8870     2.9120    -0.1480 na         1 GI2      -0.092100
     16 C7B         -0.9200     4.0830     0.5650 cc         1 GI2      -0.057600
     17 C8B         -1.0660     3.7240     1.8630 cd         1 GI2      -0.098300
     18 O1           0.7690     6.9380    -0.9150 os         1 GI2      -0.403900
     19 O5           1.5260     4.8850    -0.4610 o          1 GI2      -0.529000
     20 H1C1        -1.1070     6.1840     0.6600 hc         1 GI2       0.112700
     21 H1C2        -1.4410     5.5160    -0.9210 hc         1 GI2       0.112700
     22 H4C1         1.9600     8.3900    -1.6570 h1         1 GI2       0.064033
     23 H4C2         2.3750     6.7640    -2.2390 h1         1 GI2       0.064033
     24 H4C3         2.8080     7.2550    -0.5850 h1         1 GI2       0.064033
     25 H2B          0.0730     0.1540     0.1700 h1         1 GI2       0.092700
     26 HA          -0.7930     2.8300    -1.1520 hn         1 GI2       0.364700
     27 H3B         -2.6570    -0.1790     1.4800 h1         1 GI2       0.077700
     28 HB          -1.3270    -0.4340    -1.4020 ho         1 GI2       0.460000
     29 H4B          0.1550    -0.0120     2.6460 h1         1 GI2       0.063700
     30 HC          -1.6800    -2.2540     1.8560 ho         1 GI2       0.449000
     31 H5B         -2.3910     1.5390     3.3260 h1         1 GI2       0.113700
     32 HD          -0.6850    -1.0360     4.3420 ho         1 GI2       0.435000
     33 H6B1        -0.7400     1.4180     5.1380 h1         1 GI2       0.078200
     34 H6B2        -0.9840     3.0460     4.5560 h1         1 GI2       0.078200
     35 H6B          1.2770     1.4450     4.1480 ho         1 GI2       0.418000
     36 H8B         -1.1410     4.3420     2.7390 h4         1 GI2       0.225000
@<TRIPOS>BOND
     1     1     2 1   
     2     1    16 1   
     3     1    20 1   
     4     1    21 1   
     5     2    18 1   
     6     2    19 2   
     7     3    18 1   
     8     3    22 1   
     9     3    23 1   
    10     3    24 1   
    11     4     5 1   
    12     4    13 2   
    13     4    15 1   
    14     5     6 1   
    15     5    10 1   
    16     5    25 1   
    17     6     7 1   
    18     6    11 1   
    19     6    27 1   
    20     7     8 1   
    21     7    12 1   
    22     7    29 1   
    23     8     9 1   
    24     8    13 1   
    25     8    31 1   
    26     9    14 1   
    27     9    33 1   
    28     9    34 1   
    29    10    28 1   
    30    11    30 1   
    31    12    32 1   
    32    13    17 1   
    33    14    35 1   
    34    15    16 1   
    35    15    26 1   
    36    16    17 2   
    37    17    36 1   
@<TRIPOS>SUBSTRUCTURE
     1 GI2         1 TEMP              0 ****  ****    0 ROOT
