@<TRIPOS>MOLECULE
GI3
   29    30     1     0     0
SMALL
No Charge or Current Charge


@<TRIPOS>ATOM
      1 C1           2.9860     2.4090    -2.3250 cc         1 GI3      -0.102600
      2 C2           3.7160     3.2590    -3.3370 c6         1 GI3       0.232600
      3 O2           3.7570     2.5400    -4.5860 oh         1 GI3      -0.713000
      4 C3           5.1750     3.5100    -2.8220 c6         1 GI3       0.108300
      5 C80          2.6010     0.8690    -0.7100 cc         1 GI3      -0.187000
      6 O3           5.1760     4.4590    -1.7350 oh         1 GI3      -0.649000
      7 C4           5.8350     2.1440    -2.3950 c6         1 GI3       0.136300
      8 N10          3.5900     1.5490    -1.4240 na         1 GI3       0.019300
      9 O4           5.8870     1.2740    -3.5410 oh         1 GI3      -0.704000
     10 C5           5.0570     1.4220    -1.2310 c6         1 GI3       0.006300
     11 C6           5.4850     1.9020     0.1910 c3         1 GI3       0.146600
     12 O6           6.8870     1.6990     0.4430 oh         1 GI3      -0.643000
     13 N1           1.6350     2.2550    -2.1440 na         1 GI3      -0.025000
     14 C7           1.3710     1.3210    -1.1640 cd         1 GI3      -0.153600
     15 C8           0.0390     0.8700    -0.6780 c          1 GI3       0.736600
     16 O8          -0.0080     0.0250     0.2050 o          1 GI3      -0.651500
     17 O9          -0.9510     1.3720    -1.1900 o          1 GI3      -0.651500
     18 H2           3.2160     4.2330    -3.4620 h1         1 GI3       0.088700
     19 H1           0.9120     2.7490    -2.6600 hn         1 GI3       0.413000
     20 HA           2.8790     2.6670    -5.0200 ho         1 GI3       0.533000
     21 H3           5.7560     3.9270    -3.6590 h1         1 GI3       0.065700
     22 HB           6.0830     4.8370    -1.6730 ho         1 GI3       0.470000
     23 H4           6.8620     2.3480    -2.0560 h1         1 GI3       0.106700
     24 H80          2.8360     0.1340     0.0530 h4         1 GI3       0.198000
     25 H5           5.2950     0.3510    -1.2820 h1         1 GI3       0.095700
     26 HC           5.1060     1.5570    -4.0980 ho         1 GI3       0.529000
     27 H6C1         4.8870     1.3560     0.9340 h1         1 GI3       0.071200
     28 H6C2         5.2270     2.9630     0.3040 h1         1 GI3       0.071200
     29 H6           7.0250     0.7360     0.5900 ho         1 GI3       0.452000
@<TRIPOS>BOND
     1     1     2 1   
     2     1     8 2   
     3     1    13 1   
     4     2     3 1   
     5     2     4 1   
     6     2    18 1   
     7     3    20 1   
     8     4     6 1   
     9     4     7 1   
    10     4    21 1   
    11     5     8 1   
    12     5    14 2   
    13     5    24 1   
    14     6    22 1   
    15     7     9 1   
    16     7    10 1   
    17     7    23 1   
    18     8    10 1   
    19     9    26 1   
    20    10    11 1   
    21    10    25 1   
    22    11    12 1   
    23    11    27 1   
    24    11    28 1   
    25    12    29 1   
    26    13    14 1   
    27    13    19 1   
    28    14    15 1   
    29    15    16 1   
    30    15    17 1   
@<TRIPOS>SUBSTRUCTURE
     1 GI3         1 TEMP              0 ****  ****    0 ROOT
