@<TRIPOS>MOLECULE
GI3
   29    30     1     0     0
SMALL
bcc


@<TRIPOS>ATOM
      1 C1           2.9620     2.3720    -2.2510 cc         1 GI3      -0.051900
      2 C2           3.6330     3.1990    -3.2910 c6         1 GI3       0.209400
      3 O2           3.5710     2.4430    -4.4820 oh         1 GI3      -0.590800
      4 C3           5.0700     3.4710    -2.8400 c6         1 GI3       0.085100
      5 C80          2.6640     0.8750    -0.6660 cc         1 GI3      -0.154300
      6 O3           4.9650     4.3740    -1.7720 oh         1 GI3      -0.586800
      7 C4           5.7720     2.1650    -2.4270 c6         1 GI3       0.113100
      8 N10          3.5940     1.5570    -1.4120 na         1 GI3      -0.002100
      9 O4           5.9770     1.3250    -3.5340 oh         1 GI3      -0.581800
     10 C5           5.0480     1.4390    -1.2780 c6         1 GI3      -0.023000
     11 C6           5.4570     1.9100     0.1280 c3         1 GI3       0.123400
     12 O6           6.8270     1.7060     0.3500 oh         1 GI3      -0.580800
     13 N1           1.6640     2.2240    -2.0500 na         1 GI3      -0.076100
     14 C7           1.4380     1.2970    -1.0690 cd         1 GI3      -0.102900
     15 C8           0.0480     0.9130    -0.6230 c          1 GI3       0.947200
     16 O8          -0.0020     0.0580     0.2700 o          1 GI3      -0.756800
     17 O9          -0.8700     1.5050    -1.2130 o          1 GI3      -0.756800
     18 H2           3.1020     4.1510    -3.3930 h1         1 GI3       0.088700
     19 H1           0.9270     2.7080    -2.5470 hn         1 GI3       0.362700
     20 HA           3.7490     3.0280    -5.2290 ho         1 GI3       0.434000
     21 H3           5.6200     3.9040    -3.6860 h1         1 GI3       0.065700
     22 HB           5.8360     4.7350    -1.5770 ho         1 GI3       0.431000
     23 H4           6.7680     2.4180    -2.0530 h1         1 GI3       0.106700
     24 H80          2.9430     0.1480     0.0770 h4         1 GI3       0.216000
     25 H5           5.2820     0.3760    -1.3610 h1         1 GI3       0.095700
     26 HC           5.1780     1.3150    -4.0760 ho         1 GI3       0.430000
     27 H6C1         4.8490     1.3840     0.8720 h1         1 GI3       0.071200
     28 H6C2         5.2600     2.9740     0.2410 h1         1 GI3       0.071200
     29 H6           6.9870     0.7610     0.4190 ho         1 GI3       0.413000
@<TRIPOS>BOND
     1     1     2 1   
     2     1     8 2   
     3     1    13 1   
     4     2     3 1   
     5     2     4 1   
     6     2    18 1   
     7     3    20 1   
     8     4     6 1   
     9     4     7 1   
    10     4    21 1   
    11     5     8 1   
    12     5    14 2   
    13     5    24 1   
    14     6    22 1   
    15     7     9 1   
    16     7    10 1   
    17     7    23 1   
    18     8    10 1   
    19     9    26 1   
    20    10    11 1   
    21    10    25 1   
    22    11    12 1   
    23    11    27 1   
    24    11    28 1   
    25    12    29 1   
    26    13    14 1   
    27    13    19 1   
    28    14    15 1   
    29    15    16 1   
    30    15    17 1   
@<TRIPOS>SUBSTRUCTURE
     1 GI3         1 TEMP              0 ****  ****    0 ROOT
