@<TRIPOS>MOLECULE
GI4
   32    33     1     0     0
SMALL
No Charge or Current Charge


@<TRIPOS>ATOM
      1 C1          -0.8660     5.4110    -0.2560 c3         1 GI4      -0.189100
      2 C1B         -0.9000     1.7790     0.5090 cc         1 GI4      -0.079600
      3 C2B         -0.9160     0.3060     0.2020 c6         1 GI4       0.254600
      4 C3B         -1.6360    -0.4260     1.3740 c6         1 GI4       0.125300
      5 C4B         -1.0010    -0.0040     2.7370 c6         1 GI4       0.120300
      6 C5B         -1.1950     1.5340     3.0070 c6         1 GI4       0.059300
      7 C6B         -0.3270     2.0300     4.2070 c3         1 GI4       0.146600
      8 O2B         -1.5820     0.0470    -1.0420 oh         1 GI4      -0.687000
      9 O3B         -1.5640    -1.8540     1.2130 oh         1 GI4      -0.650000
     10 O4B         -1.5870    -0.7960     3.7950 oh         1 GI4      -0.714000
     11 N1B         -0.9960     2.3250     1.7580 na         1 GI4      -0.001700
     12 O6B          1.0840     1.8710     3.9750 oh         1 GI4      -0.652000
     13 N2B         -0.8330     2.8450    -0.3700 na         1 GI4      -0.044000
     14 C7B         -0.8910     4.0360     0.3650 cc         1 GI4      -0.075300
     15 C8B         -1.0090     3.7020     1.7010 cd         1 GI4      -0.216000
     16 C2           0.3440     5.6220    -1.1740 c          1 GI4       0.734000
     17 O1           0.2570     5.2060    -2.3200 o          1 GI4      -0.667500
     18 O5           1.3790     6.0360    -0.6730 o          1 GI4      -0.667500
     19 H1C1        -0.8230     6.1330     0.5680 hc         1 GI4       0.073700
     20 H1C2        -1.7840     5.4910    -0.8490 hc         1 GI4       0.073700
     21 H2B          0.1220    -0.0580     0.1560 h1         1 GI4       0.076700
     22 HA          -0.7730     2.7680    -1.3830 hn         1 GI4       0.472000
     23 H3B         -2.6900    -0.1060     1.3830 h1         1 GI4       0.069700
     24 HB          -1.7540    -0.9250    -1.0380 ho         1 GI4       0.539000
     25 H4B          0.0800    -0.2090     2.6680 h1         1 GI4       0.073700
     26 HC          -1.7220    -2.2090     2.1190 ho         1 GI4       0.470000
     27 H5B         -2.2440     1.6840     3.2960 h1         1 GI4       0.094700
     28 HD          -0.9490    -0.8040     4.5490 ho         1 GI4       0.523000
     29 H6B1        -0.6260     1.4740     5.1060 h1         1 GI4       0.049700
     30 H6B2        -0.5630     3.0850     4.3980 h1         1 GI4       0.049700
     31 H6B          1.5530     2.2710     4.7420 ho         1 GI4       0.457000
     32 H8B         -1.1060     4.3360     2.5750 h4         1 GI4       0.179000
@<TRIPOS>BOND
     1     1    14 1   
     2     1    16 1   
     3     1    19 1   
     4     1    20 1   
     5     2     3 1   
     6     2    11 2   
     7     2    13 1   
     8     3     4 1   
     9     3     8 1   
    10     3    21 1   
    11     4     5 1   
    12     4     9 1   
    13     4    23 1   
    14     5     6 1   
    15     5    10 1   
    16     5    25 1   
    17     6     7 1   
    18     6    11 1   
    19     6    27 1   
    20     7    12 1   
    21     7    29 1   
    22     7    30 1   
    23     8    24 1   
    24     9    26 1   
    25    10    28 1   
    26    11    15 1   
    27    12    31 1   
    28    13    14 1   
    29    13    22 1   
    30    14    15 2   
    31    15    32 1   
    32    16    17 1   
    33    16    18 1   
@<TRIPOS>SUBSTRUCTURE
     1 GI4         1 TEMP              0 ****  ****    0 ROOT
