@<TRIPOS>MOLECULE
GI4
   32    33     1     0     0
SMALL
bcc


@<TRIPOS>ATOM
      1 C1          -0.5440     5.3530    -0.1660 c3         1 GI4      -0.189100
      2 C1B         -0.8480     1.8610     0.6660 cc         1 GI4      -0.028900
      3 C2B         -0.8730     0.4120     0.3250 c6         1 GI4       0.231400
      4 C3B         -1.6340    -0.3200     1.4250 c6         1 GI4       0.102100
      5 C4B         -1.0400     0.0700     2.7770 c6         1 GI4       0.097100
      6 C5B         -1.2950     1.5500     3.0880 c6         1 GI4       0.030000
      7 C6B         -0.4900     2.0300     4.2820 c3         1 GI4       0.123400
      8 O2B         -1.4440     0.2840    -0.9420 oh         1 GI4      -0.564800
      9 O3B         -1.4990    -1.6870     1.1730 oh         1 GI4      -0.587800
     10 O4B         -1.6310    -0.7070     3.7860 oh         1 GI4      -0.591800
     11 N1B         -0.9990     2.3520     1.8950 na         1 GI4      -0.023100
     12 O6B          0.8780     1.9040     3.9950 oh         1 GI4      -0.589800
     13 N2B         -0.6680     2.8740    -0.1560 na         1 GI4      -0.095100
     14 C7B         -0.6920     4.0490     0.5340 cc         1 GI4      -0.024600
     15 C8B         -0.9060     3.7240     1.8360 cd         1 GI4      -0.183300
     16 C2          -0.0150     5.2900    -1.6300 c          1 GI4       0.944600
     17 O1          -0.0660     4.1630    -2.2050 o          1 GI4      -0.772800
     18 O5           0.3830     6.3420    -2.1220 o          1 GI4      -0.772800
     19 H1C1         0.0800     6.0230     0.4250 hc         1 GI4       0.073700
     20 H1C2        -1.5280     5.8340    -0.2130 hc         1 GI4       0.073700
     21 H2B          0.1660     0.0470     0.3320 h1         1 GI4       0.076700
     22 HA          -0.4550     2.9810    -1.1870 hn         1 GI4       0.421700
     23 H3B         -2.6930    -0.0120     1.3890 h1         1 GI4       0.069700
     24 HB          -1.1700    -0.5580    -1.3130 ho         1 GI4       0.440000
     25 H4B          0.0440    -0.0930     2.7460 h1         1 GI4       0.073700
     26 HC          -2.0420    -2.1600     1.8110 ho         1 GI4       0.431000
     27 H5B         -2.3550     1.6930     3.3150 h1         1 GI4       0.094700
     28 HD          -0.9380    -1.1730     4.2600 ho         1 GI4       0.424000
     29 H6B1        -0.7920     1.4250     5.1400 h1         1 GI4       0.049700
     30 H6B2        -0.7660     3.0620     4.5310 h1         1 GI4       0.049700
     31 H6B          1.3280     1.6360     4.7990 ho         1 GI4       0.418000
     32 H8B         -1.0100     4.3510     2.7030 h4         1 GI4       0.197000
@<TRIPOS>BOND
     1     1    14 1   
     2     1    16 1   
     3     1    19 1   
     4     1    20 1   
     5     2     3 1   
     6     2    11 2   
     7     2    13 1   
     8     3     4 1   
     9     3     8 1   
    10     3    21 1   
    11     4     5 1   
    12     4     9 1   
    13     4    23 1   
    14     5     6 1   
    15     5    10 1   
    16     5    25 1   
    17     6     7 1   
    18     6    11 1   
    19     6    27 1   
    20     7    12 1   
    21     7    29 1   
    22     7    30 1   
    23     8    24 1   
    24     9    26 1   
    25    10    28 1   
    26    11    15 1   
    27    12    31 1   
    28    13    14 1   
    29    13    22 1   
    30    14    15 2   
    31    15    32 1   
    32    16    17 1   
    33    16    18 1   
@<TRIPOS>SUBSTRUCTURE
     1 GI4         1 TEMP              0 ****  ****    0 ROOT
