@<TRIPOS>MOLECULE
GI5
   55    58     1     0     0
SMALL
No Charge or Current Charge


@<TRIPOS>ATOM
      1 CAM         27.5000    17.0890     7.5860 c6         1 GI5      -0.104400
      2 CAL         27.9050    18.3330     8.4160 c6         1 GI5      -0.074400
      3 CAK         26.7990    18.6870     9.4410 c6         1 GI5      -0.115400
      4 CAJ         26.4020    17.4390    10.2680 c6         1 GI5       0.171600
      5 OAI         26.0210    16.3650     9.3830 os         1 GI5      -0.484000
      6 CAH         27.0850    15.9250     8.5170 c6         1 GI5       0.397300
      7 OAG         26.6200    14.8190     7.7340 os         1 GI5      -0.441000
      8 CAF         26.3260    13.6160     8.4590 c3         1 GI5       0.217900
      9 CAE         25.9080    12.5400     7.4640 ca         1 GI5      -0.112300
     10 CAN         24.5560    12.4000     7.1020 ca         1 GI5      -0.113000
     11 CAD         26.8740    11.6840     6.9030 ca         1 GI5      -0.087000
     12 CAC         26.5050    10.6820     5.9770 ca         1 GI5      -0.121600
     13 CAB         27.5550     9.7590     5.3710 c          1 GI5       0.716600
     14 OBF         28.7210     9.8900     5.7170 o          1 GI5      -0.718000
     15 OAA         27.1970     8.9160     4.5600 o          1 GI5      -0.718000
     16 CBE         25.1390    10.5580     5.6280 ca         1 GI5      -0.123000
     17 CAO         24.1600    11.4050     6.1840 ca         1 GI5      -0.081000
     18 NAP         22.8110    11.2090     5.7690 ns         1 GI5      -0.135000
     19 CAQ         21.6070    11.7710     6.1820 c          1 GI5       0.632300
     20 OBD         21.5110    12.5960     7.0840 o          1 GI5      -0.589100
     21 CAR         20.4320    11.2610     5.4190 cc         1 GI5      -0.168400
     22 CAS         20.4390    10.3320     4.3880 cd         1 GI5      -0.101400
     23 CAY         19.0350    11.6110     5.5720 ca         1 GI5      -0.062800
     24 CAZ         18.4220    12.5070     6.4630 ca         1 GI5      -0.047000
     25 CBA         17.0230    12.6620     6.3990 ca         1 GI5      -0.138000
     26 CBB         16.2660    11.9290     5.4580 ca         1 GI5      -0.104000
     27 CBC         16.9000    11.0350     4.5720 ca         1 GI5      -0.107000
     28 CAX         18.2980    10.8900     4.6470 ca         1 GI5      -0.089000
     29 NAT         19.1630    10.0520     3.8630 n          1 GI5      -0.096600
     30 CAU         18.8420     9.1520     2.8080 c          1 GI5       0.624100
     31 OAW         17.6900     8.9800     2.4230 o          1 GI5      -0.544100
     32 CAV         19.9830     8.3790     2.1420 c3         1 GI5      -0.182100
     33 H1          26.6660    17.3400     6.9180 hc         1 GI5       0.062700
     34 H2          28.3370    16.7750     6.9480 hc         1 GI5       0.062700
     35 H3          28.8460    18.1300     8.9470 hc         1 GI5       0.037200
     36 H4          28.0970    19.1880     7.7530 hc         1 GI5       0.037200
     37 H5          27.1430    19.4860    10.1100 hc         1 GI5       0.044200
     38 H6          25.9140    19.0740     8.9160 hc         1 GI5       0.044200
     39 H7          27.2440    17.1120    10.8960 h1         1 GI5       0.037700
     40 H8          25.5550    17.6790    10.9260 h1         1 GI5       0.037700
     41 H9          27.9490    15.6090     9.1210 h2         1 GI5       0.012700
     42 H10         27.2080    13.2760     9.0180 h1         1 GI5       0.032200
     43 H11         25.5150    13.7820     9.1800 h1         1 GI5       0.032200
     44 H12         23.8330    13.0820     7.5390 ha         1 GI5       0.130000
     45 H13         27.9170    11.8040     7.1880 ha         1 GI5       0.128000
     46 H15         24.8340     9.7930     4.9170 ha         1 GI5       0.124000
     47 H16         22.7140    10.5300     5.0270 hn         1 GI5       0.143000
     48 H17         21.2880     9.8130     3.9530 h4         1 GI5       0.222000
     49 H18         19.0030    13.0710     7.1880 ha         1 GI5       0.142000
     50 H19         16.5240    13.3490     7.0780 ha         1 GI5       0.109000
     51 H20         15.1860    12.0560     5.4170 ha         1 GI5       0.106000
     52 H21         16.3050    10.4780     3.8530 ha         1 GI5       0.135000
     53 H22         19.6280     7.7150     1.3450 hc         1 GI5       0.072367
     54 H23         20.7270     9.0900     1.7670 hc         1 GI5       0.072367
     55 H24         20.5360     7.8240     2.9070 hc         1 GI5       0.072367
@<TRIPOS>BOND
     1     1     2 1   
     2     1     6 1   
     3     1    33 1   
     4     1    34 1   
     5     2     3 1   
     6     2    35 1   
     7     2    36 1   
     8     3     4 1   
     9     3    37 1   
    10     3    38 1   
    11     4     5 1   
    12     4    39 1   
    13     4    40 1   
    14     5     6 1   
    15     6     7 1   
    16     6    41 1   
    17     7     8 1   
    18     8     9 1   
    19     8    42 1   
    20     8    43 1   
    21     9    10 ar  
    22     9    11 ar  
    23    10    17 ar  
    24    10    44 1   
    25    11    12 ar  
    26    11    45 1   
    27    12    13 1   
    28    12    16 ar  
    29    13    14 1   
    30    13    15 1   
    31    16    17 ar  
    32    16    46 1   
    33    17    18 1   
    34    18    19 1   
    35    18    47 1   
    36    19    20 2   
    37    19    21 1   
    38    21    22 2   
    39    21    23 1   
    40    22    29 1   
    41    22    48 1   
    42    23    24 ar  
    43    23    28 ar  
    44    24    25 ar  
    45    24    49 1   
    46    25    26 ar  
    47    25    50 1   
    48    26    27 ar  
    49    26    51 1   
    50    27    28 ar  
    51    27    52 1   
    52    28    29 1   
    53    29    30 1   
    54    30    31 2   
    55    30    32 1   
    56    32    53 1   
    57    32    54 1   
    58    32    55 1   
@<TRIPOS>SUBSTRUCTURE
     1 GI5         1 TEMP              0 ****  ****    0 ROOT
