@<TRIPOS>MOLECULE
GI5
   55    58     1     0     0
SMALL
bcc


@<TRIPOS>ATOM
      1 CAM         26.4310    16.9530     7.0880 c6         1 GI5      -0.104400
      2 CAL         27.0640    18.2680     7.5360 c6         1 GI5      -0.074400
      3 CAK         26.6290    18.6130     8.9560 c6         1 GI5      -0.115400
      4 CAJ         26.8650    17.4270     9.8770 c6         1 GI5       0.148400
      5 OAI         26.2270    16.2630     9.3900 os         1 GI5      -0.437600
      6 CAH         26.7050    15.8770     8.1230 c6         1 GI5       0.350900
      7 OAG         26.0640    14.7110     7.7480 os         1 GI5      -0.394600
      8 CAF         26.3990    13.5630     8.5050 c3         1 GI5       0.194700
      9 CAE         25.9440    12.3370     7.7630 ca         1 GI5      -0.112300
     10 CAN         24.6550    12.2820     7.2370 ca         1 GI5      -0.131000
     11 CAD         26.8000    11.2540     7.6230 ca         1 GI5      -0.105000
     12 CAC         26.3880    10.0990     6.9610 ca         1 GI5      -0.121600
     13 CAB         27.3300     8.9050     6.8030 c          1 GI5       0.927200
     14 OBF         28.4670     9.0300     7.2940 o          1 GI5      -0.823300
     15 OAA         26.8730     7.9170     6.1980 o          1 GI5      -0.823300
     16 CBE         25.1050    10.0530     6.4410 ca         1 GI5      -0.141000
     17 CAO         24.2330    11.1340     6.5720 ca         1 GI5       0.011600
     18 NAP         22.9700    11.0040     5.9740 ns         1 GI5      -0.461100
     19 CAQ         21.8250    11.6730     6.2680 c          1 GI5       0.699300
     20 OBD         21.7200    12.4880     7.1700 o          1 GI5      -0.589100
     21 CAR         20.6800    11.3400     5.4000 cc         1 GI5      -0.168400
     22 CAS         20.7280    10.9390     4.1060 cd         1 GI5      -0.051400
     23 CAY         19.2860    11.4660     5.7510 ca         1 GI5      -0.062800
     24 CAZ         18.6310    11.8200     6.9300 ca         1 GI5      -0.065000
     25 CBA         17.2490    11.8120     6.9470 ca         1 GI5      -0.156000
     26 CBB         16.5200    11.4570     5.8080 ca         1 GI5      -0.122000
     27 CBC         17.1480    11.1000     4.6270 ca         1 GI5      -0.125000
     28 CAX         18.5400    11.1090     4.6140 ca         1 GI5       0.003600
     29 NAT         19.4520    10.7900     3.6030 n          1 GI5      -0.256200
     30 CAU         19.1460    10.4020     2.2960 c          1 GI5       0.691100
     31 OAW         17.9980    10.3370     1.9330 o          1 GI5      -0.544100
     32 CAV         20.3110    10.0730     1.4090 c3         1 GI5      -0.182100
     33 H1          25.3490    17.0720     6.9720 hc         1 GI5       0.062700
     34 H2          26.8340    16.6420     6.1210 hc         1 GI5       0.062700
     35 H3          28.1540    18.1740     7.5020 hc         1 GI5       0.037200
     36 H4          26.7990    19.0700     6.8450 hc         1 GI5       0.037200
     37 H5          27.1800    19.4780     9.3320 hc         1 GI5       0.044200
     38 H6          25.5680    18.8790     8.9680 hc         1 GI5       0.044200
     39 H7          27.9450    17.2530     9.9860 h1         1 GI5       0.037700
     40 H8          26.4630    17.6130    10.8740 h1         1 GI5       0.037700
     41 H9          27.7980    15.7090     8.1950 h2         1 GI5       0.012700
     42 H10         27.4820    13.5120     8.6720 h1         1 GI5       0.032200
     43 H11         25.9240    13.5970     9.4910 h1         1 GI5       0.032200
     44 H12         23.9970    13.1310     7.3380 ha         1 GI5       0.148000
     45 H13         27.8030    11.3060     8.0270 ha         1 GI5       0.146000
     46 H15         24.7800     9.1600     5.9200 ha         1 GI5       0.142000
     47 H16         22.8840    10.2280     5.3350 hn         1 GI5       0.309500
     48 H17         21.5900    10.7730     3.4800 h4         1 GI5       0.172000
     49 H18         19.1900    12.0970     7.8120 ha         1 GI5       0.160000
     50 H19         16.7230    12.0850     7.8520 ha         1 GI5       0.127000
     51 H20         15.4390    11.4600     5.8460 ha         1 GI5       0.124000
     52 H21         16.5660    10.8270     3.7630 ha         1 GI5       0.153000
     53 H22         19.9370     9.7550     0.4400 hc         1 GI5       0.072367
     54 H23         20.9580    10.9390     1.2630 hc         1 GI5       0.072367
     55 H24         20.9190     9.2710     1.8290 hc         1 GI5       0.072367
@<TRIPOS>BOND
     1     1     2 1   
     2     1     6 1   
     3     1    33 1   
     4     1    34 1   
     5     2     3 1   
     6     2    35 1   
     7     2    36 1   
     8     3     4 1   
     9     3    37 1   
    10     3    38 1   
    11     4     5 1   
    12     4    39 1   
    13     4    40 1   
    14     5     6 1   
    15     6     7 1   
    16     6    41 1   
    17     7     8 1   
    18     8     9 1   
    19     8    42 1   
    20     8    43 1   
    21     9    10 ar  
    22     9    11 ar  
    23    10    17 ar  
    24    10    44 1   
    25    11    12 ar  
    26    11    45 1   
    27    12    13 1   
    28    12    16 ar  
    29    13    14 1   
    30    13    15 1   
    31    16    17 ar  
    32    16    46 1   
    33    17    18 1   
    34    18    19 1   
    35    18    47 1   
    36    19    20 2   
    37    19    21 1   
    38    21    22 2   
    39    21    23 1   
    40    22    29 1   
    41    22    48 1   
    42    23    24 ar  
    43    23    28 ar  
    44    24    25 ar  
    45    24    49 1   
    46    25    26 ar  
    47    25    50 1   
    48    26    27 ar  
    49    26    51 1   
    50    27    28 ar  
    51    27    52 1   
    52    28    29 1   
    53    29    30 1   
    54    30    31 2   
    55    30    32 1   
    56    32    53 1   
    57    32    54 1   
    58    32    55 1   
@<TRIPOS>SUBSTRUCTURE
     1 GI5         1 TEMP              0 ****  ****    0 ROOT
