@<TRIPOS>MOLECULE
GI6
   54    55     1     0     0
SMALL
No Charge or Current Charge


@<TRIPOS>ATOM
      1 C10        -27.8560    10.1810   -25.7310 ca         1 GI6      -0.129900
      2 C13        -28.7440     6.5800   -25.5130 c3         1 GI6      -0.081400
      3 C17        -29.7220     3.5580   -28.5600 ca         1 GI6      -0.200000
      4 C20        -31.7690     4.3390   -30.3150 ca         1 GI6      -0.080000
      5 C21        -31.3680     5.2160   -29.2870 ca         1 GI6      -0.111300
      6 C22        -32.0730     6.5700   -29.1590 c3         1 GI6      -0.012100
      7 C24        -30.1420     8.0580   -29.9990 c3         1 GI6      -0.080100
      8 C01        -31.1820    10.3900   -26.2830 c3         1 GI6      -0.084100
      9 C02        -30.2530    10.9570   -25.1900 c3         1 GI6      -0.134700
     10 C03        -28.8330    11.2010   -25.6930 ca         1 GI6       0.188300
     11 C05        -27.3070    12.6580   -26.5720 ca         1 GI6       0.401900
     12 C08        -26.5780    10.5440   -26.2180 ca         1 GI6       0.395900
     13 C12        -28.2070     7.8230   -26.2460 c3         1 GI6       0.152600
     14 C14        -28.9260     5.3660   -26.4430 c3         1 GI6       0.166600
     15 C16        -30.3350     4.8220   -28.4010 ca         1 GI6       0.152100
     16 C18        -30.1320     2.6950   -29.5900 ca         1 GI6      -0.072000
     17 C19        -31.1540     3.0870   -30.4660 ca         1 GI6      -0.147000
     18 C23        -31.6050     7.6010   -30.2210 c3         1 GI6      -0.135700
     19 C25        -32.5520     8.8170   -30.2600 c          1 GI6       0.602100
     20 N04        -28.5520    12.4490   -26.1230 nb         1 GI6      -0.277000
     21 N06        -27.0280    13.9110   -26.9970 nv         1 GI6      -1.046900
     22 N07        -26.2990    11.7820   -26.6380 nb         1 GI6      -0.324000
     23 N09        -25.5240     9.6840   -26.2520 nv         1 GI6      -1.062900
     24 N26        -33.1120     9.0980   -31.4560 nt         1 GI6      -0.611000
     25 O11        -28.1560     8.9020   -25.2960 os         1 GI6      -0.354100
     26 O15        -29.9460     5.6940   -27.4010 os         1 GI6      -0.348100
     27 O27        -32.7980     9.5160   -29.2920 o          1 GI6      -0.607100
     28 H132       -28.0490     6.3090   -24.7100 hc         1 GI6       0.061700
     29 H131       -29.7050     6.8180   -25.0420 hc         1 GI6       0.061700
     30 H171       -28.9280     3.2270   -27.8980 ha         1 GI6       0.115000
     31 H201       -32.5620     4.6310   -31.0010 ha         1 GI6       0.109000
     32 H221       -33.1530     6.4150   -29.2760 hc         1 GI6       0.064200
     33 H222       -31.9510     6.9960   -28.1560 hc         1 GI6       0.064200
     34 H242       -29.8340     8.7560   -30.7870 hc         1 GI6       0.043367
     35 H241       -30.0340     8.5650   -29.0340 hc         1 GI6       0.043367
     36 H243       -29.4550     7.2030   -30.0190 hc         1 GI6       0.043367
     37 H013       -32.1960    10.2520   -25.8900 hc         1 GI6       0.043033
     38 H011       -31.2350    11.0730   -27.1390 hc         1 GI6       0.043033
     39 H012       -30.8190     9.4190   -26.6390 hc         1 GI6       0.043033
     40 H021       -30.6860    11.8900   -24.8080 hc         1 GI6       0.058700
     41 H022       -30.2370    10.2640   -24.3410 hc         1 GI6       0.058700
     42 H121       -28.8780     8.0790   -27.0740 h1         1 GI6       0.040700
     43 H122       -27.2150     7.6080   -26.6620 h1         1 GI6       0.040700
     44 H141       -27.9740     5.1430   -26.9430 h1         1 GI6       0.035700
     45 H142       -29.2230     4.4930   -25.8470 h1         1 GI6       0.035700
     46 H181       -29.6570     1.7230   -29.7080 ha         1 GI6       0.111000
     47 H191       -31.4720     2.4180   -31.2640 ha         1 GI6       0.115000
     48 H231       -31.6420     7.1180   -31.2050 hc         1 GI6       0.044700
     49 H062       -27.6780    14.6570   -26.7620 hn         1 GI6       0.482500
     50 H061       -26.0550    14.1730   -27.1350 hn         1 GI6       0.482500
     51 H091       -24.5960    10.0790   -26.3790 hn         1 GI6       0.487500
     52 H092       -25.5850     8.8430   -25.6860 hn         1 GI6       0.487500
     53 H262       -33.7360     9.8870   -31.5350 hn         1 GI6       0.311000
     54 H261       -32.9040     8.5240   -32.2600 hn         1 GI6       0.311000
@<TRIPOS>BOND
     1     1    10 ar  
     2     1    12 ar  
     3     1    25 1   
     4     2    13 1   
     5     2    14 1   
     6     2    28 1   
     7     2    29 1   
     8     3    15 ar  
     9     3    16 ar  
    10     3    30 1   
    11     4     5 ar  
    12     4    17 ar  
    13     4    31 1   
    14     5     6 1   
    15     5    15 ar  
    16     6    18 1   
    17     6    32 1   
    18     6    33 1   
    19     7    18 1   
    20     7    34 1   
    21     7    35 1   
    22     7    36 1   
    23     8     9 1   
    24     8    37 1   
    25     8    38 1   
    26     8    39 1   
    27     9    10 1   
    28     9    40 1   
    29     9    41 1   
    30    10    20 ar  
    31    11    20 ar  
    32    11    21 1   
    33    11    22 ar  
    34    12    22 ar  
    35    12    23 1   
    36    13    25 1   
    37    13    42 1   
    38    13    43 1   
    39    14    26 1   
    40    14    44 1   
    41    14    45 1   
    42    15    26 1   
    43    16    17 ar  
    44    16    46 1   
    45    17    47 1   
    46    18    19 1   
    47    18    48 1   
    48    19    24 1   
    49    19    27 2   
    50    21    49 1   
    51    21    50 1   
    52    23    51 1   
    53    23    52 1   
    54    24    53 1   
    55    24    54 1   
@<TRIPOS>SUBSTRUCTURE
     1 GI6         1 TEMP              0 ****  ****    0 ROOT
