@<TRIPOS>MOLECULE
GI6
   54    55     1     0     0
SMALL
bcc


@<TRIPOS>ATOM
      1 C10        -27.8270    10.1190   -25.6720 ca         1 GI6      -0.260500
      2 C13        -28.7690     6.6050   -25.5820 c3         1 GI6      -0.081400
      3 C17        -29.6170     3.6340   -28.5600 ca         1 GI6      -0.218000
      4 C20        -31.6940     4.2710   -30.2600 ca         1 GI6      -0.098000
      5 C21        -31.3530     5.1750   -29.2610 ca         1 GI6      -0.111300
      6 C22        -32.1080     6.4740   -29.1620 c3         1 GI6      -0.012100
      7 C24        -30.2350     7.9830   -30.0070 c3         1 GI6      -0.080100
      8 C01        -31.1760    10.9160   -26.3690 c3         1 GI6      -0.084100
      9 C02        -30.1830    10.8920   -25.2100 c3         1 GI6      -0.134700
     10 C03        -28.7740    11.1200   -25.6720 ca         1 GI6       0.516600
     11 C05        -27.2420    12.5770   -26.5080 ca         1 GI6       0.927900
     12 C08        -26.5280    10.4600   -26.1100 ca         1 GI6       0.724200
     13 C12        -28.4740     7.9330   -26.2510 c3         1 GI6       0.129400
     14 C14        -28.9130     5.4610   -26.5600 c3         1 GI6       0.143400
     15 C16        -30.2990     4.8400   -28.3980 ca         1 GI6       0.152100
     16 C18        -29.9800     2.7560   -29.5720 ca         1 GI6      -0.090000
     17 C19        -31.0220     3.0680   -30.4300 ca         1 GI6      -0.165000
     18 C23        -31.6600     7.4850   -30.2320 c3         1 GI6      -0.135700
     19 C25        -32.6130     8.6680   -30.2450 c          1 GI6       0.669100
     20 N04        -28.4830    12.3590   -26.0900 nb         1 GI6      -0.803000
     21 N06        -26.9570    13.8160   -26.9890 nv         1 GI6      -0.936500
     22 N07        -26.2470    11.6880   -26.5280 nb         1 GI6      -0.850000
     23 N09        -25.5430     9.5400   -26.1340 nv         1 GI6      -0.952500
     24 N26        -33.1590     8.9590   -31.4360 nt         1 GI6      -0.678000
     25 O11        -28.0830     8.8520   -25.2330 os         1 GI6      -0.330900
     26 O15        -29.9990     5.7320   -27.4290 os         1 GI6      -0.324900
     27 O27        -32.8520     9.3140   -29.2330 o          1 GI6      -0.607100
     28 H132       -27.9380     6.3480   -24.9190 hc         1 GI6       0.061700
     29 H131       -29.6610     6.6830   -24.9560 hc         1 GI6       0.061700
     30 H171       -28.8020     3.3610   -27.9040 ha         1 GI6       0.133000
     31 H201       -32.5130     4.5220   -30.9250 ha         1 GI6       0.127000
     32 H221       -33.1710     6.2610   -29.3050 hc         1 GI6       0.064200
     33 H222       -32.0100     6.9210   -28.1730 hc         1 GI6       0.064200
     34 H242       -29.9350     8.6830   -30.7880 hc         1 GI6       0.043367
     35 H241       -30.1420     8.4880   -29.0450 hc         1 GI6       0.043367
     36 H243       -29.5300     7.1520   -30.0220 hc         1 GI6       0.043367
     37 H013       -32.1960    10.8000   -26.0020 hc         1 GI6       0.043033
     38 H011       -31.1210    11.8580   -26.9150 hc         1 GI6       0.043033
     39 H012       -30.9850    10.1070   -27.0740 hc         1 GI6       0.043033
     40 H021       -30.4360    11.6860   -24.5030 hc         1 GI6       0.058700
     41 H022       -30.2640     9.9480   -24.6710 hc         1 GI6       0.058700
     42 H121       -29.3530     8.3120   -26.7800 h1         1 GI6       0.040700
     43 H122       -27.6710     7.8160   -26.9900 h1         1 GI6       0.040700
     44 H141       -27.9870     5.3420   -27.1360 h1         1 GI6       0.035700
     45 H142       -29.0820     4.5290   -26.0100 h1         1 GI6       0.035700
     46 H181       -29.4400     1.8240   -29.6810 ha         1 GI6       0.129000
     47 H191       -31.3130     2.3860   -31.2170 ha         1 GI6       0.133000
     48 H231       -31.6980     6.9840   -31.2040 hc         1 GI6       0.044700
     49 H062       -27.5910    14.5580   -26.7450 hn         1 GI6       0.427300
     50 H061       -25.9880    14.0780   -27.0460 hn         1 GI6       0.427300
     51 H091       -24.6010     9.8660   -26.2690 hn         1 GI6       0.432300
     52 H092       -25.6450     8.6950   -25.5970 hn         1 GI6       0.432300
     53 H262       -33.7850     9.7420   -31.5330 hn         1 GI6       0.311000
     54 H261       -32.9630     8.4180   -32.2600 hn         1 GI6       0.311000
@<TRIPOS>BOND
     1     1    10 ar  
     2     1    12 ar  
     3     1    25 1   
     4     2    13 1   
     5     2    14 1   
     6     2    28 1   
     7     2    29 1   
     8     3    15 ar  
     9     3    16 ar  
    10     3    30 1   
    11     4     5 ar  
    12     4    17 ar  
    13     4    31 1   
    14     5     6 1   
    15     5    15 ar  
    16     6    18 1   
    17     6    32 1   
    18     6    33 1   
    19     7    18 1   
    20     7    34 1   
    21     7    35 1   
    22     7    36 1   
    23     8     9 1   
    24     8    37 1   
    25     8    38 1   
    26     8    39 1   
    27     9    10 1   
    28     9    40 1   
    29     9    41 1   
    30    10    20 ar  
    31    11    20 ar  
    32    11    21 1   
    33    11    22 ar  
    34    12    22 ar  
    35    12    23 1   
    36    13    25 1   
    37    13    42 1   
    38    13    43 1   
    39    14    26 1   
    40    14    44 1   
    41    14    45 1   
    42    15    26 1   
    43    16    17 ar  
    44    16    46 1   
    45    17    47 1   
    46    18    19 1   
    47    18    48 1   
    48    19    24 1   
    49    19    27 2   
    50    21    49 1   
    51    21    50 1   
    52    23    51 1   
    53    23    52 1   
    54    24    53 1   
    55    24    54 1   
@<TRIPOS>SUBSTRUCTURE
     1 GI6         1 TEMP              0 ****  ****    0 ROOT
