@<TRIPOS>MOLECULE
GI7
   38    39     1     0     0
SMALL
No Charge or Current Charge


@<TRIPOS>ATOM
      1 C01        -34.5430    37.1280   -21.5510 c3         1 GI7      -0.176100
      2 C02        -33.8880    38.4990   -21.3630 c          1 GI7       0.605100
      3 C05        -34.1390    40.9840   -20.9190 c6         1 GI7       0.089000
      4 C06        -35.1200    42.1090   -21.3640 c6         1 GI7       0.219300
      5 C08        -36.8190    40.7130   -20.1000 c6         1 GI7       0.219300
      6 C10        -37.2800    43.1800   -20.5480 ca         1 GI7       0.339000
      7 C11        -38.1600    43.3030   -19.4540 ca         1 GI7      -0.175500
      8 C13        -38.9300    45.4750   -20.2640 ca         1 GI7       0.219000
      9 C15        -41.0110    46.7480   -19.8980 c2         1 GI7       0.805100
     10 N17        -41.2570    47.9840   -20.2130 nv         1 GI7      -1.026200
     11 C18        -38.0480    45.3630   -21.3520 ca         1 GI7      -0.084000
     12 C09        -36.1830    39.5030   -20.8490 c6         1 GI7       0.089000
     13 C12        -38.9760    44.4410   -19.3100 ca         1 GI7      -0.084000
     14 C19        -37.2320    44.2240   -21.4940 ca         1 GI7      -0.175500
     15 N04        -34.7050    39.6090   -21.0550 n          1 GI7      -0.419800
     16 N07        -36.4570    42.0360   -20.6960 nh         1 GI7      -0.843400
     17 N14        -39.7290    46.6130   -20.1310 nu         1 GI7      -0.974200
     18 N16        -41.7960    45.8010   -20.0330 n2         1 GI7      -0.898100
     19 O03        -32.6770    38.6240   -21.4890 o          1 GI7      -0.601100
     20 H1         -33.8280    36.3650   -21.8790 hc         1 GI7       0.060700
     21 H2         -35.0230    36.8310   -20.6120 hc         1 GI7       0.060700
     22 H3         -35.3890    37.2150   -22.2410 hc         1 GI7       0.060700
     23 H4         -33.2200    41.0760   -21.5150 h1         1 GI7       0.057700
     24 H5         -33.8620    41.1470   -19.8690 h1         1 GI7       0.057700
     25 H6         -34.6440    43.0780   -21.1540 h1         1 GI7       0.050200
     26 H7         -35.2520    42.0420   -22.4540 h1         1 GI7       0.050200
     27 H8         -36.4950    40.6830   -19.0490 h1         1 GI7       0.050200
     28 H9         -37.9110    40.5800   -20.1070 h1         1 GI7       0.050200
     29 H10        -38.2070    42.5260   -18.6970 ha         1 GI7       0.114500
     30 H11        -42.2520    48.1050   -20.3420 hn         1 GI7       0.461500
     31 H12        -40.8760    48.6200   -19.5260 hn         1 GI7       0.461500
     32 H13        -37.9980    46.1540   -22.0950 ha         1 GI7       0.118000
     33 H14        -36.6650    39.4070   -21.8320 h1         1 GI7       0.057700
     34 H15        -36.4180    38.5950   -20.2780 h1         1 GI7       0.057700
     35 H16        -39.6350    44.5230   -18.4500 ha         1 GI7       0.118000
     36 H17        -36.5710    44.1550   -22.3520 ha         1 GI7       0.114500
     37 H18        -39.4400    47.4010   -20.6950 hn         1 GI7       0.477000
     38 H19        -41.1950    44.9720   -20.0440 hn         1 GI7       0.393400
@<TRIPOS>BOND
     1     1     2 1   
     2     1    20 1   
     3     1    21 1   
     4     1    22 1   
     5     2    15 1   
     6     2    19 2   
     7     3     4 1   
     8     3    15 1   
     9     3    23 1   
    10     3    24 1   
    11     4    16 1   
    12     4    25 1   
    13     4    26 1   
    14     5    12 1   
    15     5    16 1   
    16     5    27 1   
    17     5    28 1   
    18     6     7 ar  
    19     6    14 ar  
    20     6    16 1   
    21     7    13 ar  
    22     7    29 1   
    23     8    11 ar  
    24     8    13 ar  
    25     8    17 1   
    26     9    10 1   
    27     9    17 1   
    28     9    18 2   
    29    10    30 1   
    30    10    31 1   
    31    11    14 ar  
    32    11    32 1   
    33    12    15 1   
    34    12    33 1   
    35    12    34 1   
    36    13    35 1   
    37    14    36 1   
    38    17    37 1   
    39    18    38 1   
@<TRIPOS>SUBSTRUCTURE
     1 GI7         1 TEMP              0 ****  ****    0 ROOT
