@<TRIPOS>MOLECULE
GI7
   38    39     1     0     0
SMALL
bcc


@<TRIPOS>ATOM
      1 C01        -34.7690    37.2380   -21.3240 c3         1 GI7      -0.176100
      2 C02        -34.0680    38.5760   -21.3580 c          1 GI7       0.672100
      3 C05        -34.2280    40.9930   -21.2380 c6         1 GI7       0.089000
      4 C06        -35.2660    42.0340   -21.6170 c6         1 GI7       0.219300
      5 C08        -36.6400    40.8190   -19.9740 c6         1 GI7       0.219300
      6 C10        -37.1300    43.1720   -20.4950 ca         1 GI7       0.200600
      7 C11        -38.0230    43.2890   -19.4160 ca         1 GI7      -0.193500
      8 C13        -38.7700    45.4630   -20.1720 ca         1 GI7       0.080600
      9 C15        -40.9480    46.5800   -20.0590 c2         1 GI7       0.805100
     10 N17        -41.5220    47.8220   -19.9280 nv         1 GI7      -0.915800
     11 C18        -37.8850    45.3580   -21.2390 ca         1 GI7      -0.102000
     12 C09        -36.2460    39.6290   -20.8330 c6         1 GI7       0.089000
     13 C12        -38.8130    44.4140   -19.2580 ca         1 GI7      -0.102000
     14 C19        -37.0740    44.2470   -21.3980 ca         1 GI7      -0.193500
     15 N04        -34.8290    39.6720   -21.1490 n          1 GI7      -0.486800
     16 N07        -36.3410    42.0610   -20.6510 nh         1 GI7      -0.705000
     17 N14        -39.5690    46.6100   -20.0010 nu         1 GI7      -0.780600
     18 N16        -41.6920    45.5410   -20.1440 n2         1 GI7      -0.898100
     19 O03        -32.8640    38.6610   -21.5630 o          1 GI7      -0.601100
     20 H1         -34.0870    36.4680   -21.6740 hc         1 GI7       0.060700
     21 H2         -35.0740    36.9840   -20.3070 hc         1 GI7       0.060700
     22 H3         -35.6650    37.2210   -21.9450 hc         1 GI7       0.060700
     23 H4         -33.4460    40.9890   -21.9960 h1         1 GI7       0.057700
     24 H5         -33.7590    41.2720   -20.2890 h1         1 GI7       0.057700
     25 H6         -34.7560    43.0000   -21.6340 h1         1 GI7       0.050200
     26 H7         -35.6270    41.8470   -22.6370 h1         1 GI7       0.050200
     27 H8         -36.1450    40.7490   -18.9980 h1         1 GI7       0.050200
     28 H9         -37.7140    40.7400   -19.7940 h1         1 GI7       0.050200
     29 H10        -38.0840    42.5150   -18.6630 ha         1 GI7       0.132500
     30 H11        -40.9950    48.6180   -20.2500 hn         1 GI7       0.406300
     31 H12        -42.4860    47.8550   -20.2170 hn         1 GI7       0.406300
     32 H13        -37.8300    46.1550   -21.9710 ha         1 GI7       0.136000
     33 H14        -36.8550    39.6200   -21.7430 h1         1 GI7       0.057700
     34 H15        -36.4840    38.7250   -20.2740 h1         1 GI7       0.057700
     35 H16        -39.4600    44.4800   -18.3910 ha         1 GI7       0.136000
     36 H17        -36.4190    44.2150   -22.2590 ha         1 GI7       0.132500
     37 H18        -39.1260    47.4890   -20.2200 hn         1 GI7       0.421800
     38 H19        -41.1420    44.6930   -20.1970 hn         1 GI7       0.393400
@<TRIPOS>BOND
     1     1     2 1   
     2     1    20 1   
     3     1    21 1   
     4     1    22 1   
     5     2    15 1   
     6     2    19 2   
     7     3     4 1   
     8     3    15 1   
     9     3    23 1   
    10     3    24 1   
    11     4    16 1   
    12     4    25 1   
    13     4    26 1   
    14     5    12 1   
    15     5    16 1   
    16     5    27 1   
    17     5    28 1   
    18     6     7 ar  
    19     6    14 ar  
    20     6    16 1   
    21     7    13 ar  
    22     7    29 1   
    23     8    11 ar  
    24     8    13 ar  
    25     8    17 1   
    26     9    10 1   
    27     9    17 1   
    28     9    18 2   
    29    10    30 1   
    30    10    31 1   
    31    11    14 ar  
    32    11    32 1   
    33    12    15 1   
    34    12    33 1   
    35    12    34 1   
    36    13    35 1   
    37    14    36 1   
    38    17    37 1   
    39    18    38 1   
@<TRIPOS>SUBSTRUCTURE
     1 GI7         1 TEMP              0 ****  ****    0 ROOT
