@<TRIPOS>MOLECULE
GI8
   55    58     1     0     0
SMALL
bcc


@<TRIPOS>ATOM
      1 N9           1.3040    -0.0650    -3.5890 n1         1 GI8      -0.414800
      2 C8           1.5720     0.4180    -2.5710 cg         1 GI8       0.223500
      3 C3           1.8580     1.0220    -1.3340 ce         1 GI8      -0.259900
      4 C2           1.7870     2.3940    -1.2970 c2         1 GI8       0.406100
      5 N7           1.6360     3.1960    -2.3550 nv         1 GI8      -0.855600
      6 O1           1.8920     3.1020    -0.1630 os         1 GI8      -0.333400
      7 C6           1.9200     2.3880     0.9870 cc         1 GI8       0.537600
      8 N12          1.8250     2.9880     2.1430 nd         1 GI8      -0.509800
      9 N11          1.9000     1.9710     3.0060 na         1 GI8      -0.004600
     10 C10          2.0350     0.7640     2.4290 cd         1 GI8      -0.035600
     11 C13          2.1270    -0.4900     3.2190 c3         1 GI8      -0.036800
     12 C5           2.0530     1.0060     1.0660 cc         1 GI8      -0.305600
     13 C4           2.2160     0.1350    -0.1430 c6         1 GI8       0.199800
     14 C14          3.6880    -0.3690    -0.2390 c3         1 GI8      -0.043700
     15 C16          3.9700    -1.2050    -1.4870 c3         1 GI8      -0.089100
     16 C15          4.6910     0.7760    -0.1680 c3         1 GI8      -0.089100
     17 C17          1.1980    -1.0060    -0.0260 ca         1 GI8      -0.061300
     18 C18          1.5500    -2.3000     0.3280 ca         1 GI8      -0.092000
     19 C19          0.5600    -3.2740     0.4700 ca         1 GI8      -0.023000
     20 C23          0.9400    -4.6010     0.8390 cg         1 GI8       0.234800
     21 N24          1.2480    -5.6710     1.1340 n1         1 GI8      -0.366800
     22 C22         -0.1520    -0.7230    -0.2230 ca         1 GI8      -0.088000
     23 C21         -1.1500    -1.6840    -0.0790 ca         1 GI8      -0.006000
     24 C20         -0.7820    -2.9810     0.2740 ca         1 GI8      -0.079000
     25 C25         -2.5570    -1.3580    -0.3010 cc         1 GI8      -0.026100
     26 S29         -3.1570     0.2430    -0.0480 ss         1 GI8      -0.038800
     27 C28         -4.7570    -0.2160    -0.4820 cc         1 GI8      -0.069400
     28 C27         -4.8200    -1.5400    -0.7950 cd         1 GI8      -0.143000
     29 C26         -3.5650    -2.1930    -0.6950 cd         1 GI8      -0.137000
     30 C30         -5.8410     0.8040    -0.5070 c3         1 GI8       0.204700
     31 O31         -5.7460     1.5880     0.6530 os         1 GI8      -0.405600
     32 C32         -6.6910     2.6310     0.6750 c3         1 GI8       0.121700
     33 H1           1.5040     2.8080    -3.2740 hn         1 GI8       0.452300
     34 H2           1.3170     4.1420    -2.2210 hn         1 GI8       0.452300
     35 H4           1.2720    -1.1390     3.0290 hc         1 GI8       0.058700
     36 H5           3.0270    -1.0510     2.9710 hc         1 GI8       0.058700
     37 H6           2.1520    -0.2790     4.2880 hc         1 GI8       0.058700
     38 H7           3.8610    -0.9980     0.6410 hc         1 GI8       0.038700
     39 H8           4.0220    -0.5810    -2.3790 hc         1 GI8       0.037700
     40 H9           4.9370    -1.7000    -1.3860 hc         1 GI8       0.037700
     41 H10          3.2240    -1.9790    -1.6670 hc         1 GI8       0.037700
     42 H11          4.6190     1.3430     0.7600 hc         1 GI8       0.037700
     43 H12          5.7050     0.3780    -0.2290 hc         1 GI8       0.037700
     44 H13          4.5640     1.4670    -1.0030 hc         1 GI8       0.037700
     45 H14          2.5780    -2.5760     0.5060 ha         1 GI8       0.146000
     46 H15         -0.4280     0.2840    -0.5120 ha         1 GI8       0.145000
     47 H16         -1.5290    -3.7510     0.4110 ha         1 GI8       0.147000
     48 H17         -5.7340    -2.0340    -1.0920 ha         1 GI8       0.152000
     49 H18         -3.4180    -3.2400    -0.9200 ha         1 GI8       0.154000
     50 H19         -5.7490     1.4320    -1.4050 h1         1 GI8       0.035700
     51 H20         -6.8110     0.2920    -0.5800 h1         1 GI8       0.035700
     52 H21         -6.5650     3.3150    -0.1720 h1         1 GI8       0.031367
     53 H22         -7.7190     2.2510     0.6540 h1         1 GI8       0.031367
     54 H23         -6.5500     3.1900     1.5990 h1         1 GI8       0.031367
     55 H3           1.8500     2.1600     3.9950 hn         1 GI8       0.329700
@<TRIPOS>BOND
     1     1     2 3   
     2     2     3 1   
     3     3     4 2   
     4     3    13 1   
     5     4     5 1   
     6     4     6 1   
     7     5    33 1   
     8     5    34 1   
     9     6     7 1   
    10     7     8 2   
    11     7    12 1   
    12     8     9 1   
    13     9    10 1   
    14     9    55 1   
    15    10    11 1   
    16    10    12 2   
    17    11    35 1   
    18    11    36 1   
    19    11    37 1   
    20    12    13 1   
    21    13    14 1   
    22    13    17 1   
    23    14    15 1   
    24    14    16 1   
    25    14    38 1   
    26    15    39 1   
    27    15    40 1   
    28    15    41 1   
    29    16    42 1   
    30    16    43 1   
    31    16    44 1   
    32    17    18 ar  
    33    17    22 ar  
    34    18    19 ar  
    35    18    45 1   
    36    19    20 1   
    37    19    24 ar  
    38    20    21 3   
    39    22    23 ar  
    40    22    46 1   
    41    23    24 ar  
    42    23    25 1   
    43    24    47 1   
    44    25    26 1   
    45    25    29 2   
    46    26    27 1   
    47    27    28 2   
    48    27    30 1   
    49    28    29 1   
    50    28    48 1   
    51    29    49 1   
    52    30    31 1   
    53    30    50 1   
    54    30    51 1   
    55    31    32 1   
    56    32    52 1   
    57    32    53 1   
    58    32    54 1   
@<TRIPOS>SUBSTRUCTURE
     1 GI8         1 TEMP              0 ****  ****    0 ROOT
