@<TRIPOS>MOLECULE
GI8
   55    58     1     0     0
SMALL
No Charge or Current Charge


@<TRIPOS>ATOM
      1 N9           1.6450    -0.3050    -3.7350 n1         1 GI8      -0.504000
      2 C8           1.8660     0.2370    -2.7260 cg         1 GI8       0.312700
      3 C3           2.0950     0.9450    -1.5020 ce         1 GI8      -0.259900
      4 C2           2.0730     2.2970    -1.4880 c2         1 GI8       0.406100
      5 N7           1.8820     3.1210    -2.5710 nv         1 GI8      -0.966000
      6 O1           2.1950     3.0580    -0.3750 os         1 GI8      -0.333400
      7 C6           2.1620     2.4450     0.8330 cc         1 GI8       0.472300
      8 N12          2.0930     3.1520     1.9330 nd         1 GI8      -0.509800
      9 N11          2.0640     2.1300     2.8900 na         1 GI8      -0.004200
     10 C10          2.1280     0.8410     2.3190 cd         1 GI8      -0.086300
     11 C13          2.1090    -0.4400     3.1140 c3         1 GI8      -0.036800
     12 C5           2.2060     1.0650     0.9710 cc         1 GI8      -0.240300
     13 C4           2.3360     0.1190    -0.2050 c6         1 GI8       0.199800
     14 C14          3.8310    -0.4340    -0.2100 c3         1 GI8      -0.043700
     15 C16          4.1900    -1.4250    -1.3540 c3         1 GI8      -0.089100
     16 C15          4.9180     0.6760    -0.1650 c3         1 GI8      -0.089100
     17 C17          1.2290    -0.9640    -0.0360 ca         1 GI8      -0.061300
     18 C18          1.4930    -2.2990     0.3560 ca         1 GI8      -0.074000
     19 C19          0.4420    -3.2180     0.5270 ca         1 GI8      -0.023000
     20 C23          0.7270    -4.5690     0.9270 cg         1 GI8       0.324000
     21 N24          0.9670    -5.6630     1.2560 n1         1 GI8      -0.456000
     22 C22         -0.1190    -0.5750    -0.2110 ca         1 GI8      -0.070000
     23 C21         -1.1790    -1.4870    -0.0480 ca         1 GI8      -0.006000
     24 C20         -0.8880    -2.8140     0.3210 ca         1 GI8      -0.061000
     25 C25         -2.5610    -1.0390    -0.2400 cc         1 GI8      -0.171000
     26 S29         -3.1680     0.5910     0.0440 ss         1 GI8       0.251000
     27 C28         -4.7790     0.0980    -0.4770 cc         1 GI8      -0.214300
     28 C27         -4.7980    -1.2270    -0.8470 cd         1 GI8      -0.125000
     29 C26         -3.5390    -1.8760    -0.7190 cd         1 GI8      -0.119000
     30 C30         -5.9160     1.0790    -0.4920 c3         1 GI8       0.227900
     31 O31         -6.4890     1.1060     0.8250 os         1 GI8      -0.452000
     32 C32         -7.6000     2.0050     0.9710 c3         1 GI8       0.144900
     33 H1           1.3990     2.7110    -3.3660 hn         1 GI8       0.507500
     34 H2           1.6130     4.0760    -2.3510 hn         1 GI8       0.507500
     35 H4           1.1700    -0.9840     2.9560 hc         1 GI8       0.058700
     36 H5           2.9350    -1.1010     2.8280 hc         1 GI8       0.058700
     37 H6           2.2010    -0.2460     4.1890 hc         1 GI8       0.058700
     38 H7           3.9720    -0.9920     0.7220 hc         1 GI8       0.038700
     39 H8           4.3820    -0.8920    -2.2930 hc         1 GI8       0.037700
     40 H9           5.1010    -1.9820    -1.1030 hc         1 GI8       0.037700
     41 H10          3.3940    -2.1550    -1.5390 hc         1 GI8       0.037700
     42 H11          4.8280     1.2930     0.7360 hc         1 GI8       0.037700
     43 H12          5.9210     0.2320    -0.1530 hc         1 GI8       0.037700
     44 H13          4.8520     1.3320    -1.0420 hc         1 GI8       0.037700
     45 H14          2.5060    -2.6380     0.5480 ha         1 GI8       0.128000
     46 H15         -0.3430     0.4530    -0.4820 ha         1 GI8       0.127000
     47 H16         -1.6940    -3.5270     0.4740 ha         1 GI8       0.129000
     48 H17         -5.6900    -1.7300    -1.2090 ha         1 GI8       0.134000
     49 H18         -3.3810    -2.9160    -0.9850 ha         1 GI8       0.136000
     50 H19         -5.5420     2.0720    -0.7760 h1         1 GI8       0.035700
     51 H20         -6.6610     0.7660    -1.2350 h1         1 GI8       0.035700
     52 H21         -7.2990     3.0380     0.7520 h1         1 GI8       0.031367
     53 H22         -8.4180     1.7300     0.2910 h1         1 GI8       0.031367
     54 H23         -7.9850     1.9730     1.9980 h1         1 GI8       0.031367
     55 H3           2.0040     2.3390     3.8870 hn         1 GI8       0.380000
@<TRIPOS>BOND
     1     1     2 3   
     2     2     3 1   
     3     3     4 2   
     4     3    13 1   
     5     4     5 1   
     6     4     6 1   
     7     5    33 1   
     8     5    34 1   
     9     6     7 1   
    10     7     8 2   
    11     7    12 1   
    12     8     9 1   
    13     9    10 1   
    14     9    55 1   
    15    10    11 1   
    16    10    12 2   
    17    11    35 1   
    18    11    36 1   
    19    11    37 1   
    20    12    13 1   
    21    13    14 1   
    22    13    17 1   
    23    14    15 1   
    24    14    16 1   
    25    14    38 1   
    26    15    39 1   
    27    15    40 1   
    28    15    41 1   
    29    16    42 1   
    30    16    43 1   
    31    16    44 1   
    32    17    18 ar  
    33    17    22 ar  
    34    18    19 ar  
    35    18    45 1   
    36    19    20 1   
    37    19    24 ar  
    38    20    21 3   
    39    22    23 ar  
    40    22    46 1   
    41    23    24 ar  
    42    23    25 1   
    43    24    47 1   
    44    25    26 1   
    45    25    29 2   
    46    26    27 1   
    47    27    28 2   
    48    27    30 1   
    49    28    29 1   
    50    28    48 1   
    51    29    49 1   
    52    30    31 1   
    53    30    50 1   
    54    30    51 1   
    55    31    32 1   
    56    32    52 1   
    57    32    53 1   
    58    32    54 1   
@<TRIPOS>SUBSTRUCTURE
     1 GI8         1 TEMP              0 ****  ****    0 ROOT
