@<TRIPOS>MOLECULE
GI9
   94    98     1     0     0
SMALL
bcc


@<TRIPOS>ATOM
      1 N12         18.2480    47.5030    47.2180 n8         1 GI9      -0.882800
      2 C13         17.0300    43.7240    59.0600 c6         1 GI9       0.142700
      3 C14         17.5400    44.7490    60.0710 c6         1 GI9      -0.112900
      4 C15         15.8110    44.2630    58.2830 c6         1 GI9      -0.112900
      5 C16         18.0350    45.9920    59.3320 c6         1 GI9       0.112000
      6 C17         15.7940    45.7870    58.3530 c6         1 GI9       0.112000
      7 C18         17.5110    41.2710    59.4120 ca         1 GI9       0.006600
      8 C19         17.6330    46.9990    57.1650 c          1 GI9       0.784100
      9 C20         17.2840    47.8270    54.9050 c3         1 GI9       0.047700
     10 C22         15.8220    42.1750    60.6120 c          1 GI9       0.800500
     11 C23         16.9700    40.2650    60.2210 ca         1 GI9       0.003600
     12 C24         16.5350    48.9350    52.7730 cc         1 GI9      -0.143400
     13 C25         18.5780    41.0070    58.5720 ca         1 GI9      -0.125000
     14 C26         18.2480    46.9150    54.1400 c          1 GI9       0.659100
     15 C27         15.0590    49.0340    54.7790 c3         1 GI9      -0.080100
     16 C28         17.4710    38.9780    60.2110 ca         1 GI9      -0.130000
     17 C29         15.9480    48.8060    51.4720 ca         1 GI9      -0.092800
     18 C21         16.0930    48.2090    54.0090 c3         1 GI9       0.010500
     19 C30         20.4660    46.7690    53.0870 c3         1 GI9       0.049700
     20 C31         17.4980    49.8990    52.6560 cd         1 GI9      -0.105100
     21 C32         19.0870    39.7110    58.5610 ca         1 GI9      -0.128000
     22 C33         20.5510    47.2730    51.6390 c3         1 GI9      -0.079400
     23 C34         16.6100    49.7180    50.6200 ca         1 GI9      -0.046200
     24 C35         18.5440    38.7130    59.3640 ca         1 GI9      -0.126000
     25 C36         19.3140    46.9160    50.8260 c3         1 GI9      -0.081400
     26 C37         14.9210    48.0110    50.9490 ca         1 GI9      -0.074000
     27 C38         21.7960    46.9110    53.8200 c          1 GI9       0.639100
     28 C39         19.3840    47.4210    49.3930 c3         1 GI9      -0.071400
     29 C40         16.2720    49.8590    49.2750 ca         1 GI9      -0.151000
     30 C41         24.1150    46.1270    53.6600 c3         1 GI9       0.182800
     31 C42         14.5850    48.1450    49.6160 ca         1 GI9      -0.161000
     32 C43         15.2540    49.0630    48.7880 ca         1 GI9      -0.116000
     33 C44         18.2160    46.9250    48.5550 c3         1 GI9       0.142800
     34 C45         24.7420    45.1630    52.6610 c3         1 GI9      -0.107100
     35 C46         24.2280    45.5610    55.0690 c3         1 GI9      -0.107100
     36 C47         24.7650    47.4990    53.5390 c3         1 GI9      -0.107100
     37 N06         17.1380    46.3180    58.2300 n          1 GI9      -0.498800
     38 N07         16.7850    42.4230    59.6570 n          1 GI9      -0.362000
     39 N08         16.8050    47.1530    56.0860 ns         1 GI9      -0.563900
     40 N09         15.9450    40.8470    60.9310 ns         1 GI9      -0.457100
     41 N10         19.4390    47.4490    53.8330 ns         1 GI9      -0.544900
     42 N11         17.5490    50.3610    51.3700 na         1 GI9      -0.170400
     43 O01         18.7600    47.4860    57.1780 o          1 GI9      -0.639100
     44 O03         17.9170    45.7760    53.8480 o          1 GI9      -0.619100
     45 O04         22.7200    46.1790    53.2300 os         1 GI9      -0.440900
     46 O05         21.9520    47.6010    54.7950 o          1 GI9      -0.530000
     47 H122        17.4810    47.1280    46.6740 hn         1 GI9       0.331800
     48 H121        18.0600    48.4960    47.2920 hn         1 GI9       0.331800
     49 H131        17.8350    43.5650    58.3410 h1         1 GI9       0.064700
     50 H142        18.3720    44.3310    60.6400 hc         1 GI9       0.064950
     51 H141        16.7590    44.9980    60.7900 hc         1 GI9       0.064950
     52 H152        14.8780    43.8850    58.6980 hc         1 GI9       0.064950
     53 H151        15.8650    43.9270    57.2460 hc         1 GI9       0.064950
     54 H162        19.0290    45.7980    58.9310 h1         1 GI9       0.056950
     55 H161        18.1260    46.8300    60.0300 h1         1 GI9       0.056950
     56 H172        15.3830    46.1100    59.3130 h1         1 GI9       0.056950
     57 H171        15.1300    46.2090    57.6040 h1         1 GI9       0.056950
     58 H201        17.7900    48.7410    55.2220 h1         1 GI9       0.081700
     59 H251        19.0120    41.7720    57.9410 ha         1 GI9       0.144000
     60 H271        14.6210    48.4730    55.6040 hc         1 GI9       0.039700
     61 H272        15.5110    49.9410    55.1840 hc         1 GI9       0.039700
     62 H273        14.2490    49.3330    54.1140 hc         1 GI9       0.039700
     63 H281        17.0460    38.2060    60.8400 ha         1 GI9       0.140000
     64 H211        15.6120    47.2760    53.6920 hc         1 GI9       0.066700
     65 H301        20.2140    45.7050    53.0690 h1         1 GI9       0.106700
     66 H311        18.1630    50.3090    53.4010 h4         1 GI9       0.162000
     67 H321        19.9220    39.4800    57.9130 ha         1 GI9       0.135000
     68 H331        21.4300    46.8430    51.1570 hc         1 GI9       0.049200
     69 H332        20.6980    48.3590    51.6470 hc         1 GI9       0.049200
     70 H351        18.9600    37.7150    59.3330 ha         1 GI9       0.135000
     71 H361        18.4180    47.3240    51.3020 hc         1 GI9       0.052700
     72 H362        19.1960    45.8270    50.8260 hc         1 GI9       0.052700
     73 H371        14.3970    47.3030    51.5800 ha         1 GI9       0.135000
     74 H392        20.3230    47.1090    48.9240 hc         1 GI9       0.038700
     75 H391        19.3870    48.5170    49.3960 hc         1 GI9       0.038700
     76 H401        16.7870    50.5650    48.6360 ha         1 GI9       0.132000
     77 H421        13.7930    47.5370    49.1990 ha         1 GI9       0.131000
     78 H431        14.9670    49.1450    47.7480 ha         1 GI9       0.127000
     79 H442        17.2820    47.1320    49.0930 h1         1 GI9       0.034700
     80 H441        18.2850    45.8370    48.4600 h1         1 GI9       0.034700
     81 H451        25.8020    45.0450    52.8820 hc         1 GI9       0.049256
     82 H452        24.2770    44.1770    52.7150 hc         1 GI9       0.049256
     83 H453        24.6500    45.5340    51.6390 hc         1 GI9       0.049256
     84 H462        25.2790    45.3670    55.2860 hc         1 GI9       0.049256
     85 H461        23.8530    46.2440    55.8280 hc         1 GI9       0.049256
     86 H463        23.6940    44.6130    55.1540 hc         1 GI9       0.049256
     87 H473        25.8360    47.3980    53.7140 hc         1 GI9       0.049256
     88 H471        24.6300    47.9060    52.5360 hc         1 GI9       0.049256
     89 H472        24.3760    48.2110    54.2630 hc         1 GI9       0.049256
     90 H081        16.0770    46.4740    55.9300 hn         1 GI9       0.313500
     91 H091        15.3610    40.3900    61.6130 hn         1 GI9       0.353500
     92 H101        19.6320    48.3940    54.1240 hn         1 GI9       0.327500
     93 H111        18.1850    51.0660    51.0360 hn         1 GI9       0.301700
     94 O02         15.0230    42.9690    61.0770 o          1 GI9      -0.647500
@<TRIPOS>BOND
     1     1    33 1   
     2     1    47 1   
     3     1    48 1   
     4     2     3 1   
     5     2     4 1   
     6     2    38 1   
     7     2    49 1   
     8     3     5 1   
     9     3    50 1   
    10     3    51 1   
    11     4     6 1   
    12     4    52 1   
    13     4    53 1   
    14     5    37 1   
    15     5    54 1   
    16     5    55 1   
    17     6    37 1   
    18     6    56 1   
    19     6    57 1   
    20     7    11 ar  
    21     7    13 ar  
    22     7    38 1   
    23     8    37 1   
    24     8    39 1   
    25     8    43 2   
    26     9    14 1   
    27     9    18 1   
    28     9    39 1   
    29     9    58 1   
    30    10    38 1   
    31    10    40 1   
    32    10    94 2   
    33    11    16 ar  
    34    11    40 1   
    35    12    17 1   
    36    12    18 1   
    37    12    20 2   
    38    13    21 ar  
    39    13    59 1   
    40    14    41 1   
    41    14    44 2   
    42    15    18 1   
    43    15    60 1   
    44    15    61 1   
    45    15    62 1   
    46    16    24 ar  
    47    16    63 1   
    48    17    23 ar  
    49    17    26 ar  
    50    18    64 1   
    51    19    22 1   
    52    19    27 1   
    53    19    41 1   
    54    19    65 1   
    55    20    42 1   
    56    20    66 1   
    57    21    24 ar  
    58    21    67 1   
    59    22    25 1   
    60    22    68 1   
    61    22    69 1   
    62    23    29 ar  
    63    23    42 1   
    64    24    70 1   
    65    25    28 1   
    66    25    71 1   
    67    25    72 1   
    68    26    31 ar  
    69    26    73 1   
    70    27    45 1   
    71    27    46 2   
    72    28    33 1   
    73    28    74 1   
    74    28    75 1   
    75    29    32 ar  
    76    29    76 1   
    77    30    34 1   
    78    30    35 1   
    79    30    36 1   
    80    30    45 1   
    81    31    32 ar  
    82    31    77 1   
    83    32    78 1   
    84    33    79 1   
    85    33    80 1   
    86    34    81 1   
    87    34    82 1   
    88    34    83 1   
    89    35    84 1   
    90    35    85 1   
    91    35    86 1   
    92    36    87 1   
    93    36    88 1   
    94    36    89 1   
    95    39    90 1   
    96    40    91 1   
    97    41    92 1   
    98    42    93 1   
@<TRIPOS>SUBSTRUCTURE
     1 GI9         1 TEMP              0 ****  ****    0 ROOT
