@<TRIPOS>MOLECULE
GI9
   94    98     1     0     0
SMALL
No Charge or Current Charge


@<TRIPOS>ATOM
      1 N12         16.7330    44.7590    47.9910 n8         1 GI9      -0.993200
      2 C13         16.2420    42.9640    59.7200 c6         1 GI9       0.142700
      3 C14         16.0020    44.3700    60.3030 c6         1 GI9      -0.112900
      4 C15         15.9290    43.0260    58.2160 c6         1 GI9      -0.112900
      5 C16         16.9350    45.4070    59.6460 c6         1 GI9       0.112000
      6 C17         16.8230    44.0540    57.4850 c6         1 GI9       0.112000
      7 C18         16.0120    40.5350    60.4720 ca         1 GI9       0.006600
      8 C19         17.4980    46.5020    57.4710 c          1 GI9       0.650100
      9 C20         18.2510    47.3750    55.2070 c3         1 GI9       0.047700
     10 C22         14.3150    41.9660    61.1580 c          1 GI9       0.591000
     11 C23         15.1490    39.8140    61.2750 ca         1 GI9       0.003600
     12 C24         17.7230    49.3740    53.7240 cc         1 GI9      -0.143400
     13 C25         17.0460    39.8990    59.7700 ca         1 GI9      -0.107000
     14 C26         19.2290    46.6950    54.1950 c          1 GI9       0.592100
     15 C27         16.0190    48.7150    55.4310 c3         1 GI9      -0.080100
     16 C28         15.3060    38.4460    61.5160 ca         1 GI9      -0.112000
     17 C29         17.6130    49.6220    52.3120 ca         1 GI9      -0.092800
     18 C21         17.1390    48.2110    54.4910 c3         1 GI9       0.010500
     19 C30         20.8750    47.1520    52.3080 c3         1 GI9       0.049700
     20 C31         18.5600    50.3720    54.2200 cd         1 GI9      -0.155100
     21 C32         17.2410    38.5180    60.0000 ca         1 GI9      -0.110000
     22 C33         20.1830    47.0550    50.9210 c3         1 GI9      -0.079400
     23 C34         18.3880    50.7090    52.0190 ca         1 GI9      -0.046200
     24 C35         16.3840    37.7990    60.8730 ca         1 GI9      -0.108000
     25 C36         19.0330    46.0240    50.8440 c3         1 GI9      -0.081400
     26 C37         16.8890    48.9430    51.3190 ca         1 GI9      -0.056000
     27 C38         22.0770    48.1320    52.2630 c          1 GI9       0.590100
     28 C39         18.4430    45.8820    49.4230 c3         1 GI9      -0.071400
     29 C40         18.5080    51.1930    50.7090 ca         1 GI9      -0.133000
     30 C41         24.3710    48.2970    51.3290 c3         1 GI9       0.206000
     31 C42         16.9870    49.4120    49.9920 ca         1 GI9      -0.143000
     32 C43         17.7970    50.5310    49.6870 ca         1 GI9      -0.098000
     33 C44         17.2650    44.8880    49.3620 c3         1 GI9       0.142800
     34 C45         25.2160    47.3160    50.4880 c3         1 GI9      -0.107100
     35 C46         25.0690    48.5650    52.6880 c3         1 GI9      -0.107100
     36 C47         24.0980    49.5900    50.5180 c3         1 GI9      -0.107100
     37 N06         16.9540    45.3920    58.1500 n          1 GI9      -0.431800
     38 N07         15.4850    41.8630    60.3700 n          1 GI9      -0.295000
     39 N08         17.6910    46.3470    56.1190 ns         1 GI9      -0.496900
     40 N09         14.1600    40.7120    61.6770 ns         1 GI9      -0.503600
     41 N10         19.9320    47.5510    53.3750 ns         1 GI9      -0.477900
     42 N11         18.9860    51.2070    53.1600 na         1 GI9      -0.220700
     43 O01         17.7860    47.5390    58.0470 o          1 GI9      -0.639100
     44 O03         19.3840    45.4800    54.1310 o          1 GI9      -0.619100
     45 O04         23.1270    47.5920    51.5510 os         1 GI9      -0.464100
     46 O05         22.0760    49.2310    52.8050 o          1 GI9      -0.481000
     47 H122        15.9110    44.1430    48.0070 hn         1 GI9       0.387000
     48 H121        16.3510    45.6640    47.6950 hn         1 GI9       0.387000
     49 H131        17.3110    42.7360    59.8390 h1         1 GI9       0.064700
     50 H142        16.1640    44.3650    61.3890 hc         1 GI9       0.064950
     51 H141        14.9640    44.6840    60.1340 hc         1 GI9       0.064950
     52 H152        14.8730    43.2910    58.0710 hc         1 GI9       0.064950
     53 H151        16.0640    42.0380    57.7580 hc         1 GI9       0.064950
     54 H162        17.9620    45.2340    60.0010 h1         1 GI9       0.056950
     55 H161        16.6400    46.4050    60.0000 h1         1 GI9       0.056950
     56 H172        16.4180    44.1780    56.4710 h1         1 GI9       0.056950
     57 H171        17.8320    43.6290    57.3800 h1         1 GI9       0.056950
     58 H201        18.8650    48.0620    55.8040 h1         1 GI9       0.081700
     59 H251        17.6820    40.4460    59.0790 ha         1 GI9       0.126000
     60 H271        15.4770    47.8810    55.8910 hc         1 GI9       0.039700
     61 H272        16.4320    49.3450    56.2280 hc         1 GI9       0.039700
     62 H273        15.2900    49.3120    54.8690 hc         1 GI9       0.039700
     63 H281        14.6170    37.9000    62.1560 ha         1 GI9       0.122000
     64 H211        16.6540    47.5320    53.7800 hc         1 GI9       0.066700
     65 H301        21.2990    46.1700    52.5550 h1         1 GI9       0.106700
     66 H311        18.8990    50.5350    55.2400 h4         1 GI9       0.212000
     67 H321        18.0490    37.9970    59.4900 ha         1 GI9       0.117000
     68 H331        20.9370    46.7930    50.1700 hc         1 GI9       0.049200
     69 H332        19.7980    48.0450    50.6450 hc         1 GI9       0.049200
     70 H351        16.5440    36.7340    61.0300 ha         1 GI9       0.117000
     71 H361        18.2320    46.3160    51.5320 hc         1 GI9       0.052700
     72 H362        19.4020    45.0460    51.1780 hc         1 GI9       0.052700
     73 H371        16.2700    48.0820    51.5560 ha         1 GI9       0.117000
     74 H392        19.2330    45.5510    48.7380 hc         1 GI9       0.038700
     75 H391        18.1060    46.8660    49.0730 hc         1 GI9       0.038700
     76 H401        19.1300    52.0570    50.4860 ha         1 GI9       0.114000
     77 H421        16.4390    48.9080    49.1990 ha         1 GI9       0.113000
     78 H431        17.8700    50.8840    48.6600 ha         1 GI9       0.109000
     79 H442        16.4570    45.2310    50.0240 h1         1 GI9       0.034700
     80 H441        17.5980    43.8990    49.7050 h1         1 GI9       0.034700
     81 H451        26.1960    47.7470    50.2520 hc         1 GI9       0.049256
     82 H452        25.3800    46.3770    51.0310 hc         1 GI9       0.049256
     83 H453        24.7130    47.0800    49.5420 hc         1 GI9       0.049256
     84 H462        26.1060    48.8820    52.5270 hc         1 GI9       0.049256
     85 H461        24.5730    49.3600    53.2550 hc         1 GI9       0.049256
     86 H463        25.0840    47.6580    53.3040 hc         1 GI9       0.049256
     87 H473        25.0390    50.0110    50.1440 hc         1 GI9       0.049256
     88 H471        23.4550    49.3800    49.6550 hc         1 GI9       0.049256
     89 H472        23.6180    50.3640    51.1270 hc         1 GI9       0.049256
     90 H081        17.4750    45.4400    55.7300 hn         1 GI9       0.313500
     91 H091        13.3820    40.4730    62.2830 hn         1 GI9       0.467000
     92 H101        19.7130    48.5390    53.4660 hn         1 GI9       0.327500
     93 H111        19.6060    52.0100    53.2230 hn         1 GI9       0.352000
     94 O02         13.5860    42.9230    61.3540 o          1 GI9      -0.572000
@<TRIPOS>BOND
     1     1    33 1   
     2     1    47 1   
     3     1    48 1   
     4     2     3 1   
     5     2     4 1   
     6     2    38 1   
     7     2    49 1   
     8     3     5 1   
     9     3    50 1   
    10     3    51 1   
    11     4     6 1   
    12     4    52 1   
    13     4    53 1   
    14     5    37 1   
    15     5    54 1   
    16     5    55 1   
    17     6    37 1   
    18     6    56 1   
    19     6    57 1   
    20     7    11 ar  
    21     7    13 ar  
    22     7    38 1   
    23     8    37 1   
    24     8    39 1   
    25     8    43 2   
    26     9    14 1   
    27     9    18 1   
    28     9    39 1   
    29     9    58 1   
    30    10    38 1   
    31    10    40 1   
    32    10    94 2   
    33    11    16 ar  
    34    11    40 1   
    35    12    17 1   
    36    12    18 1   
    37    12    20 2   
    38    13    21 ar  
    39    13    59 1   
    40    14    41 1   
    41    14    44 2   
    42    15    18 1   
    43    15    60 1   
    44    15    61 1   
    45    15    62 1   
    46    16    24 ar  
    47    16    63 1   
    48    17    23 ar  
    49    17    26 ar  
    50    18    64 1   
    51    19    22 1   
    52    19    27 1   
    53    19    41 1   
    54    19    65 1   
    55    20    42 1   
    56    20    66 1   
    57    21    24 ar  
    58    21    67 1   
    59    22    25 1   
    60    22    68 1   
    61    22    69 1   
    62    23    29 ar  
    63    23    42 1   
    64    24    70 1   
    65    25    28 1   
    66    25    71 1   
    67    25    72 1   
    68    26    31 ar  
    69    26    73 1   
    70    27    45 1   
    71    27    46 2   
    72    28    33 1   
    73    28    74 1   
    74    28    75 1   
    75    29    32 ar  
    76    29    76 1   
    77    30    34 1   
    78    30    35 1   
    79    30    36 1   
    80    30    45 1   
    81    31    32 ar  
    82    31    77 1   
    83    32    78 1   
    84    33    79 1   
    85    33    80 1   
    86    34    81 1   
    87    34    82 1   
    88    34    83 1   
    89    35    84 1   
    90    35    85 1   
    91    35    86 1   
    92    36    87 1   
    93    36    88 1   
    94    36    89 1   
    95    39    90 1   
    96    40    91 1   
    97    41    92 1   
    98    42    93 1   
@<TRIPOS>SUBSTRUCTURE
     1 GI9         1 TEMP              0 ****  ****    0 ROOT
