@<TRIPOS>MOLECULE
GIA
   40    42     1     0     0
SMALL
abcg2


@<TRIPOS>ATOM
      1 F1          -2.0020    -3.7760    -1.4250 f          1 GIA      -0.198000
      2 C1          -2.5970    -2.8690    -0.6290 ca         1 GIA       0.159000
      3 C2          -3.1180    -3.2830     0.5810 ca         1 GIA      -0.175000
      4 C3          -3.7320    -2.3280     1.3820 ca         1 GIA      -0.089000
      5 C4          -3.8110    -1.0040     0.9740 ca         1 GIA      -0.122000
      6 C5          -3.2760    -0.6040    -0.2490 ca         1 GIA      -0.018300
      7 C6          -2.6640    -1.5580    -1.0580 ca         1 GIA      -0.162000
      8 C7          -3.3190     0.8390    -0.6650 c3         1 GIA      -0.043100
      9 C8          -2.2440     1.6750     0.0440 c3         1 GIA      -0.041300
     10 C9          -2.3270     3.1660    -0.3820 c          1 GIA       0.716000
     11 O10         -3.4370     3.7010    -0.1940 o          1 GIA      -0.716000
     12 O11         -1.3060     3.6850    -0.8600 o          1 GIA      -0.716000
     13 N12         -0.9470     1.0900    -0.1890 ns         1 GIA      -0.448900
     14 C13          0.0410     1.0950     0.7140 c          1 GIA       0.611700
     15 O14         -0.0690     1.5750     1.8360 o          1 GIA      -0.623100
     16 C15          1.3160     0.4430     0.2790 ca         1 GIA      -0.123600
     17 C16          2.4900     0.8470     0.8640 ca         1 GIA      -0.051000
     18 C17          3.7240     0.2630     0.5070 ca         1 GIA      -0.047000
     19 C18          3.7430    -0.7770    -0.4580 ca         1 GIA      -0.030000
     20 C19          2.5200    -1.1920    -1.0340 ca         1 GIA      -0.122000
     21 C20          1.3410    -0.5990    -0.6800 ca         1 GIA      -0.078000
     22 C21          4.9430     0.6800     1.0940 ca         1 GIA      -0.085000
     23 C22          6.1230     0.0880     0.7390 ca         1 GIA      -0.127000
     24 C23          6.1410    -0.9490    -0.2200 ca         1 GIA      -0.116000
     25 C24          4.9790    -1.3710    -0.8050 ca         1 GIA      -0.103000
     26 H2          -3.0510    -4.3180     0.8870 ha         1 GIA       0.116000
     27 H3          -4.1530    -2.6250     2.3330 ha         1 GIA       0.104000
     28 H4          -4.2960    -0.2750     1.6110 ha         1 GIA       0.125000
     29 H6          -2.2490    -1.2810    -2.0200 ha         1 GIA       0.123000
     30 H7          -3.1930     0.9210    -1.7490 hc         1 GIA       0.062200
     31 H7A         -4.2900     1.2700    -0.4250 hc         1 GIA       0.062200
     32 H8          -2.4330     1.6280     1.1190 h1         1 GIA       0.069700
     33 HN12        -0.7190     0.8600    -1.1430 hn         1 GIA       0.300500
     34 H16          2.4810     1.6340     1.6090 ha         1 GIA       0.138000
     35 H19          2.5250    -1.9980    -1.7570 ha         1 GIA       0.106000
     36 H20          0.4200    -0.9610    -1.1200 ha         1 GIA       0.119000
     37 H21          4.9260     1.4740     1.8300 ha         1 GIA       0.114000
     38 H22          7.0510     0.4090     1.1940 ha         1 GIA       0.103000
     39 H23          7.0820    -1.4100    -0.4880 ha         1 GIA       0.101000
     40 H24          4.9920    -2.1660    -1.5400 ha         1 GIA       0.105000
@<TRIPOS>BOND
     1     1     2 1   
     2     2     3 ar  
     3     2     7 ar  
     4     3     4 ar  
     5     3    26 1   
     6     4     5 ar  
     7     4    27 1   
     8     5     6 ar  
     9     5    28 1   
    10     6     7 ar  
    11     6     8 1   
    12     7    29 1   
    13     8     9 1   
    14     8    30 1   
    15     8    31 1   
    16     9    10 1   
    17     9    13 1   
    18     9    32 1   
    19    10    11 1   
    20    10    12 1   
    21    13    14 1   
    22    13    33 1   
    23    14    15 2   
    24    14    16 1   
    25    16    17 ar  
    26    16    21 ar  
    27    17    18 ar  
    28    17    34 1   
    29    18    19 ar  
    30    18    22 ar  
    31    19    20 ar  
    32    19    25 ar  
    33    20    21 ar  
    34    20    35 1   
    35    21    36 1   
    36    22    23 ar  
    37    22    37 1   
    38    23    24 ar  
    39    23    38 1   
    40    24    25 ar  
    41    24    39 1   
    42    25    40 1   
@<TRIPOS>SUBSTRUCTURE
     1 GIA         1 TEMP              0 ****  ****    0 ROOT
