@<TRIPOS>MOLECULE
GIA
   40    42     1     0     0
SMALL
No Charge or Current Charge


@<TRIPOS>ATOM
      1 F1          -1.1860    -3.7680    -0.2940 f          1 GIA      -0.198000
      2 C1          -1.9780    -2.8100     0.2340 ca         1 GIA       0.159000
      3 C2          -2.5120    -2.9790     1.5200 ca         1 GIA      -0.175000
      4 C3          -3.3340    -1.9810     2.0710 ca         1 GIA      -0.089000
      5 C4          -3.6170    -0.8190     1.3310 ca         1 GIA      -0.122000
      6 C5          -3.0830    -0.6470     0.0380 ca         1 GIA      -0.018300
      7 C6          -2.2620    -1.6540    -0.5080 ca         1 GIA      -0.162000
      8 C7          -3.3830     0.6190    -0.7560 c3         1 GIA      -0.043100
      9 C8          -2.4490     1.8040    -0.4020 c3         1 GIA      -0.041300
     10 C9          -2.8030     3.0710    -1.2340 c          1 GIA       0.716000
     11 O10         -3.3290     4.0120    -0.6570 o          1 GIA      -0.716000
     12 O11         -2.4650     3.1090    -2.4110 o          1 GIA      -0.716000
     13 N12         -1.0180     1.4470    -0.5790 ns         1 GIA      -0.448900
     14 C13         -0.1790     0.9780     0.4130 c          1 GIA       0.611700
     15 O14         -0.5390     0.9200     1.5820 o          1 GIA      -0.623100
     16 C15          1.2080     0.5470    -0.0230 ca         1 GIA      -0.123600
     17 C16          2.1180     0.0620     0.9460 ca         1 GIA      -0.051000
     18 C17          3.4120    -0.3530     0.5790 ca         1 GIA      -0.047000
     19 C18          3.8150    -0.2880    -0.7710 ca         1 GIA      -0.030000
     20 C19          2.9200     0.1910    -1.7420 ca         1 GIA      -0.122000
     21 C20          1.6280     0.6050    -1.3750 ca         1 GIA      -0.078000
     22 C21          4.3070    -0.8330     1.5550 ca         1 GIA      -0.085000
     23 C22          5.5980    -1.2470     1.1840 ca         1 GIA      -0.127000
     24 C23          5.9990    -1.1820    -0.1610 ca         1 GIA      -0.116000
     25 C24          5.1090    -0.7030    -1.1380 ca         1 GIA      -0.103000
     26 H2          -2.2870    -3.8780     2.0880 ha         1 GIA       0.116000
     27 H3          -3.7490    -2.1050     3.0690 ha         1 GIA       0.104000
     28 H4          -4.2490    -0.0470     1.7650 ha         1 GIA       0.125000
     29 H6          -1.8380    -1.5370    -1.5020 ha         1 GIA       0.123000
     30 H7          -3.3060     0.4120    -1.8310 hc         1 GIA       0.062200
     31 H7A         -4.4220     0.9270    -0.5850 hc         1 GIA       0.062200
     32 H8          -2.6130     2.0640     0.6520 h1         1 GIA       0.069700
     33 HN12        -0.6340     1.5050    -1.5130 hn         1 GIA       0.300500
     34 H16          1.8180     0.0060     1.9900 ha         1 GIA       0.138000
     35 H19          3.2230     0.2430    -2.7850 ha         1 GIA       0.106000
     36 H20          0.9660     0.9660    -2.1580 ha         1 GIA       0.119000
     37 H21          4.0050    -0.8870     2.5980 ha         1 GIA       0.114000
     38 H22          6.2880    -1.6180     1.9390 ha         1 GIA       0.103000
     39 H23          6.9990    -1.5020    -0.4470 ha         1 GIA       0.101000
     40 H24          5.4260    -0.6550    -2.1770 ha         1 GIA       0.105000
@<TRIPOS>BOND
     1     1     2 1   
     2     2     3 ar  
     3     2     7 ar  
     4     3     4 ar  
     5     3    26 1   
     6     4     5 ar  
     7     4    27 1   
     8     5     6 ar  
     9     5    28 1   
    10     6     7 ar  
    11     6     8 1   
    12     7    29 1   
    13     8     9 1   
    14     8    30 1   
    15     8    31 1   
    16     9    10 1   
    17     9    13 1   
    18     9    32 1   
    19    10    11 1   
    20    10    12 1   
    21    13    14 1   
    22    13    33 1   
    23    14    15 2   
    24    14    16 1   
    25    16    17 ar  
    26    16    21 ar  
    27    17    18 ar  
    28    17    34 1   
    29    18    19 ar  
    30    18    22 ar  
    31    19    20 ar  
    32    19    25 ar  
    33    20    21 ar  
    34    20    35 1   
    35    21    36 1   
    36    22    23 ar  
    37    22    37 1   
    38    23    24 ar  
    39    23    38 1   
    40    24    25 ar  
    41    24    39 1   
    42    25    40 1   
@<TRIPOS>SUBSTRUCTURE
     1 GIA         1 TEMP              0 ****  ****    0 ROOT
