@<TRIPOS>MOLECULE
GIC
   36    37     1     0     0
SMALL
No Charge or Current Charge


@<TRIPOS>ATOM
      1 C          -30.7700     1.0130    41.7790 c          1 GIC       0.711000
      2 N          -31.8530     3.3580    41.8450 n          1 GIC      -0.355800
      3 O          -30.5710     0.1230    40.9650 o          1 GIC      -0.734500
      4 C1         -31.4750     4.1500    43.0470 c3         1 GIC       0.114000
      5 N1         -29.9470     5.8420    41.9100 n8         1 GIC      -0.978200
      6 O1         -33.5150     2.1850    40.7750 o          1 GIC      -0.599100
      7 C2         -31.1330     5.6430    42.7740 c3         1 GIC       0.128800
      8 N2         -36.7030     5.6290    39.4560 na         1 GIC      -0.233700
      9 C3         -33.2100     3.1390    41.4820 c          1 GIC       0.605100
     10 C4         -34.3100     4.1270    41.9410 c3         1 GIC      -0.094200
     11 C5         -35.0360     4.8180    40.8120 cc         1 GIC      -0.090400
     12 C6         -36.4140     4.8820    40.6240 cd         1 GIC      -0.166100
     13 C7         -35.4810     6.0180    38.9430 ca         1 GIC      -0.048200
     14 C8         -35.2410     6.7800    37.7910 ca         1 GIC      -0.143000
     15 C9         -33.9040     7.0640    37.4450 ca         1 GIC      -0.099000
     16 CA         -30.7850     2.4810    41.2720 c3         1 GIC      -0.050000
     17 C10        -32.8440     6.5850    38.2500 ca         1 GIC      -0.157000
     18 C11        -33.1140     5.8200    39.4050 ca         1 GIC      -0.037000
     19 C12        -34.4560     5.5550    39.7220 ca         1 GIC      -0.082800
     20 OXT        -30.9300     0.8020    42.9750 o          1 GIC      -0.734500
     21 H1         -32.2830     4.0940    43.7880 h1         1 GIC       0.046700
     22 H1A        -30.6040     3.6790    43.5210 h1         1 GIC       0.046700
     23 HN1        -29.7430     6.8470    41.8460 hn         1 GIC       0.382500
     24 H2         -31.9900     6.1410    42.3040 h1         1 GIC       0.014700
     25 H4         -35.0400     3.5450    42.5150 hc         1 GIC       0.050700
     26 H4A        -33.9190     4.8950    42.6110 hc         1 GIC       0.050700
     27 H6         -37.2040     4.4530    41.2340 h4         1 GIC       0.208000
     28 H8         -36.0630     7.1430    37.1790 ha         1 GIC       0.099000
     29 H9         -33.6870     7.6520    36.5570 ha         1 GIC       0.095000
     30 HA         -29.8010     2.9130    41.4910 h1         1 GIC       0.042700
     31 HAA        -30.8950     2.4660    40.1800 h1         1 GIC       0.042700
     32 H10        -31.8140     6.8060    37.9780 ha         1 GIC       0.102000
     33 H11        -32.3020     5.4500    40.0240 ha         1 GIC       0.125000
     34 HN2        -37.6200     5.8390    39.0740 hn         1 GIC       0.338000
     35 H15        -29.1190     5.4550    42.3770 hn         1 GIC       0.382500
     36 H16        -30.9370     6.1410    43.7330 h1         1 GIC       0.014700
@<TRIPOS>BOND
     1     1     3 1   
     2     1    16 1   
     3     1    20 1   
     4     2     4 1   
     5     2     9 1   
     6     2    16 1   
     7     4     7 1   
     8     4    21 1   
     9     4    22 1   
    10     5     7 1   
    11     5    23 1   
    12     5    35 1   
    13     6     9 2   
    14     7    24 1   
    15     7    36 1   
    16     8    12 1   
    17     8    13 1   
    18     8    34 1   
    19     9    10 1   
    20    10    11 1   
    21    10    25 1   
    22    10    26 1   
    23    11    12 2   
    24    11    19 1   
    25    12    27 1   
    26    13    14 ar  
    27    13    19 ar  
    28    14    15 ar  
    29    14    28 1   
    30    15    17 ar  
    31    15    29 1   
    32    16    30 1   
    33    16    31 1   
    34    17    18 ar  
    35    17    32 1   
    36    18    19 ar  
    37    18    33 1   
@<TRIPOS>SUBSTRUCTURE
     1 GIC         1 TEMP              0 ****  ****    0 ROOT
