@<TRIPOS>MOLECULE
GIC
   36    37     1     0     0
SMALL
abcg2


@<TRIPOS>ATOM
      1 C          -31.0720     0.9620    41.8940 c          1 GIC       0.711000
      2 N          -31.6970     3.4060    41.8890 n          1 GIC      -0.355800
      3 O          -30.2590     0.1080    41.4860 o          1 GIC      -0.734500
      4 C1         -31.4820     4.0150    43.1890 c3         1 GIC       0.114000
      5 N1         -29.4050     5.1990    42.5870 n8         1 GIC      -0.978200
      6 O1         -33.0410     2.9160    40.1510 o          1 GIC      -0.599100
      7 C2         -30.7380     5.3430    43.1480 c3         1 GIC       0.128800
      8 N2         -36.7350     5.3270    39.5220 na         1 GIC      -0.233700
      9 C3         -32.8340     3.5450    41.1810 c          1 GIC       0.605100
     10 C4         -33.8690     4.5370    41.7060 c3         1 GIC      -0.094200
     11 C5         -34.8380     4.9660    40.6610 cc         1 GIC      -0.090400
     12 C6         -36.1830     4.7390    40.6280 cd         1 GIC      -0.166100
     13 C7         -35.7540     5.9550    38.8120 ca         1 GIC      -0.048200
     14 C8         -35.8170     6.6840    37.6240 ca         1 GIC      -0.143000
     15 C9         -34.6360     7.2100    37.1350 ca         1 GIC      -0.099000
     16 CA         -30.7400     2.4090    41.4620 c3         1 GIC      -0.050000
     17 C10        -33.4180     7.0190    37.8080 ca         1 GIC      -0.157000
     18 C11        -33.3600     6.2940    38.9820 ca         1 GIC      -0.037000
     19 C12        -34.5400     5.7510    39.5020 ca         1 GIC      -0.082800
     20 OXT        -32.0800     0.7790    42.5970 o          1 GIC      -0.734500
     21 H1         -32.4300     4.1540    43.7100 h1         1 GIC       0.046700
     22 H1A        -30.9200     3.3040    43.8000 h1         1 GIC       0.046700
     23 HN1        -28.9730     6.1100    42.5000 hn         1 GIC       0.382500
     24 H2         -31.2930     6.0510    42.5260 h1         1 GIC       0.014700
     25 H4         -34.4030     4.0650    42.5380 hc         1 GIC       0.050700
     26 H4A        -33.3780     5.4150    42.1310 hc         1 GIC       0.050700
     27 H6         -36.8010     4.1930    41.3250 h4         1 GIC       0.208000
     28 H8         -36.7550     6.8320    37.1040 ha         1 GIC       0.099000
     29 H9         -34.6510     7.7810    36.2150 ha         1 GIC       0.095000
     30 HA         -29.7660     2.6840    41.8670 h1         1 GIC       0.042700
     31 HAA        -30.6330     2.4410    40.3770 h1         1 GIC       0.042700
     32 H10        -32.5130     7.4460    37.3940 ha         1 GIC       0.102000
     33 H11        -32.4150     6.1520    39.4940 ha         1 GIC       0.125000
     34 HN2        -37.7110     5.3050    39.2820 hn         1 GIC       0.338000
     35 H15        -28.8230     4.6770    43.2300 hn         1 GIC       0.382500
     36 H16        -30.7480     5.7550    44.1670 h1         1 GIC       0.014700
@<TRIPOS>BOND
     1     1     3 1   
     2     1    16 1   
     3     1    20 1   
     4     2     4 1   
     5     2     9 1   
     6     2    16 1   
     7     4     7 1   
     8     4    21 1   
     9     4    22 1   
    10     5     7 1   
    11     5    23 1   
    12     5    35 1   
    13     6     9 2   
    14     7    24 1   
    15     7    36 1   
    16     8    12 1   
    17     8    13 1   
    18     8    34 1   
    19     9    10 1   
    20    10    11 1   
    21    10    25 1   
    22    10    26 1   
    23    11    12 2   
    24    11    19 1   
    25    12    27 1   
    26    13    14 ar  
    27    13    19 ar  
    28    14    15 ar  
    29    14    28 1   
    30    15    17 ar  
    31    15    29 1   
    32    16    30 1   
    33    16    31 1   
    34    17    18 ar  
    35    17    32 1   
    36    18    19 ar  
    37    18    33 1   
@<TRIPOS>SUBSTRUCTURE
     1 GIC         1 TEMP              0 ****  ****    0 ROOT
