@<TRIPOS>MOLECULE
GID
   20    21     1     0     0
SMALL
No Charge or Current Charge


@<TRIPOS>ATOM
      1 C02         -8.1380   -23.4500    25.3580 cc         1 GID      -0.095300
      2 C03         -8.3880   -24.0470    24.1240 cd         1 GID      -0.243200
      3 C04         -7.8240   -26.3510    23.0750 ca         1 GID       0.013000
      4 C05         -7.1750   -27.5830    23.3550 ca         1 GID      -0.239200
      5 C06         -6.5640   -27.7820    24.6290 ca         1 GID      -0.069000
      6 C13         -8.5610   -22.0790    25.7720 c          1 GID       0.730200
      7 O14         -8.2620   -21.7000    26.8960 o          1 GID      -0.702000
      8 O15         -9.1870   -21.3850    24.9820 o          1 GID      -0.702000
      9 C07         -6.5980   -26.7670    25.6120 ca         1 GID      -0.138000
     10 C08         -7.2470   -25.5690    25.2970 ca         1 GID      -0.040200
     11 C09         -7.8320   -25.3760    24.0790 ca         1 GID      -0.123800
     12 N10         -7.1360   -28.6610    22.3170 no         1 GID       0.704200
     13 O12         -6.5620   -29.7220    22.5940 o          1 GID      -0.438500
     14 O11         -7.6800   -28.4430    21.2260 o          1 GID      -0.438500
     15 N01         -7.4170   -24.4330    26.0750 na         1 GID      -0.180700
     16 H1          -8.9310   -23.5670    23.3110 ha         1 GID       0.215000
     17 H2          -8.3030   -26.1540    22.1170 ha         1 GID       0.139000
     18 H3          -6.0620   -28.7190    24.8640 ha         1 GID       0.128000
     19 H5          -6.1330   -26.9160    26.5840 ha         1 GID       0.113000
     20 H6          -7.0760   -24.3190    27.0240 hn         1 GID       0.369000
@<TRIPOS>BOND
     1     1     2 2   
     2     1     6 1   
     3     1    15 1   
     4     2    11 1   
     5     2    16 1   
     6     3     4 ar  
     7     3    11 ar  
     8     3    17 1   
     9     4     5 ar  
    10     4    12 1   
    11     5     9 ar  
    12     5    18 1   
    13     6     7 1   
    14     6     8 1   
    15     9    10 ar  
    16     9    19 1   
    17    10    11 ar  
    18    10    15 1   
    19    12    13 1   
    20    12    14 1   
    21    15    20 1   
@<TRIPOS>SUBSTRUCTURE
     1 GID         1 TEMP              0 ****  ****    0 ROOT
