@<TRIPOS>MOLECULE
GID
   20    21     1     0     0
SMALL
abcg2


@<TRIPOS>ATOM
      1 C02         -8.1580   -23.5060    25.2520 cc         1 GID      -0.095300
      2 C03         -8.4300   -24.0350    24.0210 cd         1 GID      -0.243200
      3 C04         -7.8280   -26.3620    23.0510 ca         1 GID       0.013000
      4 C05         -7.1790   -27.5370    23.3900 ca         1 GID      -0.239200
      5 C06         -6.5770   -27.7380    24.6450 ca         1 GID      -0.069000
      6 C13         -8.4960   -22.1570    25.8370 c          1 GID       0.730200
      7 O14         -8.1050   -21.9720    27.0060 o          1 GID      -0.702000
      8 O15         -9.1220   -21.3850    25.0940 o          1 GID      -0.702000
      9 C07         -6.6210   -26.7480    25.5960 ca         1 GID      -0.138000
     10 C08         -7.2700   -25.5550    25.2700 ca         1 GID      -0.040200
     11 C09         -7.8750   -25.3480    24.0020 ca         1 GID      -0.123800
     12 N10         -7.1200   -28.6020    22.4140 no         1 GID       0.704200
     13 O12         -6.4900   -29.6000    22.6880 o          1 GID      -0.438500
     14 O11         -7.7050   -28.4540    21.3630 o          1 GID      -0.438500
     15 N01         -7.4630   -24.4300    25.9910 na         1 GID      -0.180700
     16 H1          -8.9630   -23.5460    23.2220 ha         1 GID       0.215000
     17 H2          -8.2820   -26.2270    22.0800 ha         1 GID       0.139000
     18 H3          -6.0820   -28.6710    24.8700 ha         1 GID       0.128000
     19 H5          -6.1660   -26.8940    26.5670 ha         1 GID       0.113000
     20 H6          -7.1460   -24.2570    26.9330 hn         1 GID       0.369000
@<TRIPOS>BOND
     1     1     2 2   
     2     1     6 1   
     3     1    15 1   
     4     2    11 1   
     5     2    16 1   
     6     3     4 ar  
     7     3    11 ar  
     8     3    17 1   
     9     4     5 ar  
    10     4    12 1   
    11     5     9 ar  
    12     5    18 1   
    13     6     7 1   
    14     6     8 1   
    15     9    10 ar  
    16     9    19 1   
    17    10    11 ar  
    18    10    15 1   
    19    12    13 1   
    20    12    14 1   
    21    15    20 1   
@<TRIPOS>SUBSTRUCTURE
     1 GID         1 TEMP              0 ****  ****    0 ROOT
