@<TRIPOS>MOLECULE
GIE
   44    46     1     0     0
SMALL
No Charge or Current Charge


@<TRIPOS>ATOM
      1 C13        -39.0440    41.0340    -3.6550 cc         1 GIE      -0.274000
      2 C12        -38.5150    39.7650    -3.7560 cd         1 GIE       0.413500
      3 C11        -33.2000    41.1410    -5.8570 c3         1 GIE      -0.190100
      4 C15        -40.5070    39.2340    -2.9450 cc         1 GIE       0.719300
      5 C19        -43.6510    38.1230    -1.1040 c6         1 GIE       0.142800
      6 C18        -42.8990    38.9390    -2.2060 c6         1 GIE       0.173800
      7 C01        -35.8960    42.6220    -3.7540 c3         1 GIE      -0.089100
      8 C03        -36.1710    40.2750    -4.7320 cc         1 GIE      -0.066300
      9 C04        -37.1760    39.4640    -4.2280 cd         1 GIE      -0.224500
     10 C06        -35.4080    38.1070    -4.6670 cd         1 GIE      -0.071300
     11 C07        -34.6480    36.8010    -4.7330 c3         1 GIE      -0.031800
     12 C08        -35.0410    39.4040    -4.9940 cc         1 GIE      -0.261600
     13 C09        -33.6570    39.7190    -5.5240 c          1 GIE       0.613700
     14 C21        -42.2430    36.1620    -1.5190 c6         1 GIE       0.142800
     15 C22        -41.4550    36.9200    -2.6340 c6         1 GIE       0.173800
     16 N05        -36.7160    38.1540    -4.2110 na         1 GIE      -0.078000
     17 N16        -39.3500    38.7400    -3.3410 nd         1 GIE      -0.764000
     18 N17        -41.5220    38.4130    -2.4840 nh         1 GIE      -0.755300
     19 N20        -43.6420    36.6550    -1.3610 n7         1 GIE      -0.842400
     20 O10        -32.8290    38.8340    -5.7030 o          1 GIE      -0.564100
     21 S14        -40.6680    40.9740    -3.0400 ss         1 GIE      -0.101400
     22 H1         -38.6200    41.9980    -3.8660 h4         1 GIE       0.167000
     23 H2         -32.1240    41.1880    -6.0590 hc         1 GIE       0.056700
     24 H3         -33.7490    41.4880    -6.7380 hc         1 GIE       0.056700
     25 H4         -33.4790    41.8310    -5.0590 hc         1 GIE       0.056700
     26 H5         -44.6880    38.4830    -1.0320 h1         1 GIE       0.064950
     27 H6         -43.1720    38.3230    -0.1340 h1         1 GIE       0.064950
     28 H7         -42.8690    39.9860    -1.8740 h1         1 GIE       0.053950
     29 H8         -43.4930    38.9150    -3.1320 h1         1 GIE       0.053950
     30 H9         -35.9600    43.6890    -3.9960 hc         1 GIE       0.034367
     31 H10        -36.5880    42.4140    -2.9310 hc         1 GIE       0.034367
     32 H11        -34.8840    42.4110    -3.3920 hc         1 GIE       0.034367
     33 H12        -37.2240    42.0350    -5.3760 hc         1 GIE       0.045700
     34 H13        -35.5980    42.0620    -5.8280 hc         1 GIE       0.045700
     35 H14        -33.7490    36.8340    -4.1060 hc         1 GIE       0.056367
     36 H15        -35.2600    35.9610    -4.3830 hc         1 GIE       0.056367
     37 H16        -34.3400    36.5740    -5.7610 hc         1 GIE       0.056367
     38 H17        -42.2500    35.0860    -1.7490 h1         1 GIE       0.064950
     39 H18        -41.7070    36.2840    -0.5660 h1         1 GIE       0.064950
     40 H19        -40.4160    36.5620    -2.6070 h1         1 GIE       0.053950
     41 H20        -41.8640    36.6340    -3.6140 h1         1 GIE       0.053950
     42 H21        -37.2630    37.3600    -3.8930 hn         1 GIE       0.364000
     43 H22        -44.1420    36.4810    -2.2430 hn         1 GIE       0.408000
     44 C02        -36.2350    41.7670    -4.9960 c3         1 GIE      -0.013100
@<TRIPOS>BOND
     1     1     2 2   
     2     1    21 1   
     3     1    22 1   
     4     2     9 1   
     5     2    17 1   
     6     3    13 1   
     7     3    23 1   
     8     3    24 1   
     9     3    25 1   
    10     4    17 2   
    11     4    18 1   
    12     4    21 1   
    13     5     6 1   
    14     5    19 1   
    15     5    26 1   
    16     5    27 1   
    17     6    18 1   
    18     6    28 1   
    19     6    29 1   
    20     7    30 1   
    21     7    31 1   
    22     7    32 1   
    23     7    44 1   
    24     8     9 2   
    25     8    12 1   
    26     8    44 1   
    27     9    16 1   
    28    10    11 1   
    29    10    12 2   
    30    10    16 1   
    31    11    35 1   
    32    11    36 1   
    33    11    37 1   
    34    12    13 1   
    35    13    20 2   
    36    14    15 1   
    37    14    19 1   
    38    14    38 1   
    39    14    39 1   
    40    15    18 1   
    41    15    40 1   
    42    15    41 1   
    43    16    42 1   
    44    19    43 1   
    45    33    44 1   
    46    34    44 1   
@<TRIPOS>SUBSTRUCTURE
     1 GIE         1 TEMP              0 ****  ****    0 ROOT
