@<TRIPOS>MOLECULE
GIE
   44    46     1     0     0
SMALL
abcg2


@<TRIPOS>ATOM
      1 C13        -38.9770    41.1260    -3.1920 cc         1 GIE      -0.274000
      2 C12        -38.4570    39.9000    -3.4680 cd         1 GIE       0.413500
      3 C11        -33.5360    40.9400    -6.2810 c3         1 GIE      -0.190100
      4 C15        -40.4370    39.2250    -2.7450 cc         1 GIE       0.719300
      5 C19        -43.5910    37.9700    -1.2950 c6         1 GIE       0.142800
      6 C18        -42.7780    38.9160    -2.1690 c6         1 GIE       0.173800
      7 C01        -35.7170    42.6820    -3.8880 c3         1 GIE      -0.089100
      8 C03        -36.1770    40.3190    -4.6460 cc         1 GIE      -0.066300
      9 C04        -37.1380    39.5860    -3.9860 cd         1 GIE      -0.224500
     10 C06        -35.4470    38.1700    -4.3880 cd         1 GIE      -0.071300
     11 C07        -34.7510    36.8550    -4.3670 c3         1 GIE      -0.031800
     12 C08        -35.0840    39.4190    -4.9010 cc         1 GIE      -0.261600
     13 C09        -33.8040    39.6370    -5.5710 c          1 GIE       0.613700
     14 C21        -42.2170    36.1250    -1.9020 c6         1 GIE       0.142800
     15 C22        -41.3620    37.0030    -2.8040 c6         1 GIE       0.173800
     16 N05        -36.6700    38.3010    -3.8610 na         1 GIE      -0.078000
     17 N16        -39.2880    38.8370    -3.2110 nd         1 GIE      -0.764000
     18 N17        -41.4370    38.3940    -2.3750 nh         1 GIE      -0.755300
     19 N20        -43.5810    36.5940    -1.7490 n7         1 GIE      -0.842400
     20 O10        -32.9480    38.7640    -5.5800 o          1 GIE      -0.564100
     21 S14        -40.5960    40.9610    -2.6110 ss         1 GIE      -0.101400
     22 H1         -38.5210    42.0990    -3.2600 h4         1 GIE       0.167000
     23 H2         -32.5490    40.9130    -6.7400 hc         1 GIE       0.056700
     24 H3         -34.2780    41.1200    -7.0600 hc         1 GIE       0.056700
     25 H4         -33.5740    41.7860    -5.5950 hc         1 GIE       0.056700
     26 H5         -44.6190    38.3330    -1.2480 h1         1 GIE       0.064950
     27 H6         -43.1930    37.9980    -0.2760 h1         1 GIE       0.064950
     28 H7         -42.7250    39.8860    -1.6690 h1         1 GIE       0.053950
     29 H8         -43.2800    39.0690    -3.1340 h1         1 GIE       0.053950
     30 H9         -35.8450    43.7330    -4.1500 hc         1 GIE       0.034367
     31 H10        -36.2010    42.5160    -2.9250 hc         1 GIE       0.034367
     32 H11        -34.6510    42.4990    -3.7510 hc         1 GIE       0.034367
     33 H12        -37.3610    42.0150    -5.1070 hc         1 GIE       0.045700
     34 H13        -35.8360    42.0010    -5.9260 hc         1 GIE       0.045700
     35 H14        -33.8430    36.8910    -3.7660 hc         1 GIE       0.056367
     36 H15        -35.4010    36.0880    -3.9490 hc         1 GIE       0.056367
     37 H16        -34.4590    36.5400    -5.3680 hc         1 GIE       0.056367
     38 H17        -42.2240    35.1090    -2.3020 h1         1 GIE       0.064950
     39 H18        -41.7580    36.0760    -0.9100 h1         1 GIE       0.064950
     40 H19        -40.3250    36.6760    -2.7680 h1         1 GIE       0.053950
     41 H20        -41.7000    36.9130    -3.8460 h1         1 GIE       0.053950
     42 H21        -37.2030    37.5570    -3.4350 hn         1 GIE       0.364000
     43 H22        -44.0670    36.5260    -2.6370 hn         1 GIE       0.408000
     44 C02        -36.3040    41.7740    -4.9690 c3         1 GIE      -0.013100
@<TRIPOS>BOND
     1     1     2 2   
     2     1    21 1   
     3     1    22 1   
     4     2     9 1   
     5     2    17 1   
     6     3    13 1   
     7     3    23 1   
     8     3    24 1   
     9     3    25 1   
    10     4    17 2   
    11     4    18 1   
    12     4    21 1   
    13     5     6 1   
    14     5    19 1   
    15     5    26 1   
    16     5    27 1   
    17     6    18 1   
    18     6    28 1   
    19     6    29 1   
    20     7    30 1   
    21     7    31 1   
    22     7    32 1   
    23     7    44 1   
    24     8     9 2   
    25     8    12 1   
    26     8    44 1   
    27     9    16 1   
    28    10    11 1   
    29    10    12 2   
    30    10    16 1   
    31    11    35 1   
    32    11    36 1   
    33    11    37 1   
    34    12    13 1   
    35    13    20 2   
    36    14    15 1   
    37    14    19 1   
    38    14    38 1   
    39    14    39 1   
    40    15    18 1   
    41    15    40 1   
    42    15    41 1   
    43    16    42 1   
    44    19    43 1   
    45    33    44 1   
    46    34    44 1   
@<TRIPOS>SUBSTRUCTURE
     1 GIE         1 TEMP              0 ****  ****    0 ROOT
