@<TRIPOS>MOLECULE
GIG
   53    56     1     0     0
SMALL
abcg2


@<TRIPOS>ATOM
      1 C5          13.0570    -2.2480     1.0250 ca         1 GIG      -0.181300
      2 C6          11.8220    -1.7170     0.6590 ca         1 GIG      -0.077000
      3 C7          11.7100    -0.9100    -0.4690 ca         1 GIG      -0.033000
      4 C8          12.8840    -0.6690    -1.1910 ca         1 GIG       0.129000
      5 C10         14.2000    -1.9930     0.2880 ca         1 GIG      -0.068000
      6 N12         10.5440    -0.3210    -0.9340 ns         1 GIG      -0.161000
      7 C13          9.2760    -0.4540    -0.4220 c          1 GIG       0.667100
      8 C17          6.0710     0.1410    -1.9100 ca         1 GIG      -0.092500
      9 C20          5.1040     0.4360     0.6680 ca         1 GIG      -0.143500
     10 C21          6.4730     0.4080     0.4360 ca         1 GIG      -0.092500
     11 C24          2.0030     1.6880     1.5150 ca         1 GIG      -0.064000
     12 C36         -1.4570     3.2710     8.8340 c3         1 GIG       0.169900
     13 O35         -0.8980     3.5920     7.5580 os         1 GIG      -0.440100
     14 C33         -0.4950     2.5830     6.8080 c          1 GIG       0.657100
     15 O34         -0.5610     1.4140     7.1120 o          1 GIG      -0.538000
     16 C27          0.5250     2.2770     4.6180 cc         1 GIG       0.505400
     17 N28          0.5930     0.9260     4.6560 na         1 GIG      -0.316600
     18 C29          1.1690     0.5310     3.4720 ca         1 GIG      -0.081200
     19 C30          1.4850    -0.7140     2.9540 ca         1 GIG      -0.095000
     20 C31          2.0700    -0.7420     1.6980 ca         1 GIG      -0.109000
     21 C23          2.3170     0.4440     1.0000 ca         1 GIG       0.074100
     22 C19          4.2160     0.3300    -0.3950 ca         1 GIG       0.128100
     23 C16          6.9710     0.2490    -0.8530 ca         1 GIG      -0.063000
     24 N15          8.3480     0.2490    -1.1320 ns         1 GIG      -0.162000
     25 O14          9.0110    -1.1180     0.5640 o          1 GIG      -0.601100
     26 C9          14.1050    -1.1870    -0.8380 ca         1 GIG      -0.126000
     27 F11         12.7960     0.1090    -2.2810 f          1 GIG      -0.183000
     28 C2          13.0990    -3.1240     2.2380 c3         1 GIG       0.359300
     29 F3          14.3420    -3.4710     2.5800 f          1 GIG      -0.111667
     30 F4          12.5510    -2.5250     3.3050 f          1 GIG      -0.111667
     31 F1          12.4130    -4.2620     2.0510 f          1 GIG      -0.111667
     32 C18          4.7060     0.1890    -1.6890 ca         1 GIG      -0.143500
     33 C25          1.4140     1.7260     2.7760 ca         1 GIG       0.097400
     34 N26          0.9990     2.8020     3.5210 nd         1 GIG      -0.625100
     35 H6          10.9440    -1.9280     1.2480 ha         1 GIG       0.171000
     36 H10         15.1620    -2.4010     0.5640 ha         1 GIG       0.139000
     37 HN12        10.6520     0.2700    -1.7440 hn         1 GIG       0.161000
     38 H17          6.4390     0.0160    -2.9210 ha         1 GIG       0.124000
     39 H20          4.7510     0.5600     1.6830 ha         1 GIG       0.131500
     40 H21          7.1430     0.5250     1.2740 ha         1 GIG       0.124000
     41 H24          2.2010     2.5950     0.9570 ha         1 GIG       0.144000
     42 H361        -2.3480     2.6530     8.7330 h1         1 GIG       0.056700
     43 H362        -1.7270     4.2220     9.2830 h1         1 GIG       0.056700
     44 H363        -0.7300     2.7660     9.4690 h1         1 GIG       0.056700
     45 HN32         0.0250     4.0450     5.4570 hn         1 GIG       0.367500
     46 HN28         0.2780     0.3420     5.4150 hn         1 GIG       0.390000
     47 H30          1.2870    -1.6280     3.4960 ha         1 GIG       0.126000
     48 H31          2.3330    -1.6900     1.2470 ha         1 GIG       0.132000
     49 HN15         8.6160     0.6330    -2.0260 hn         1 GIG       0.150000
     50 H9          14.9760    -0.9640    -1.4390 ha         1 GIG       0.139000
     51 H18          4.0180     0.1080    -2.5210 ha         1 GIG       0.131500
     52 O22          2.8620     0.3650    -0.2630 os         1 GIG      -0.251200
     53 N32          0.0110     3.0490     5.6280 ns         1 GIG      -0.404400
@<TRIPOS>BOND
     1     1     2 ar  
     2     1     5 ar  
     3     1    28 1   
     4     2     3 ar  
     5     2    35 1   
     6     3     4 ar  
     7     3     6 1   
     8     4    26 ar  
     9     4    27 1   
    10     5    26 ar  
    11     5    36 1   
    12     6     7 1   
    13     6    37 1   
    14     7    24 1   
    15     7    25 2   
    16     8    23 ar  
    17     8    32 ar  
    18     8    38 1   
    19     9    10 ar  
    20     9    22 ar  
    21     9    39 1   
    22    10    23 ar  
    23    10    40 1   
    24    11    21 ar  
    25    11    33 ar  
    26    11    41 1   
    27    12    13 1   
    28    12    42 1   
    29    12    43 1   
    30    12    44 1   
    31    13    14 1   
    32    14    15 2   
    33    14    53 1   
    34    16    17 1   
    35    16    34 2   
    36    16    53 1   
    37    17    18 1   
    38    17    46 1   
    39    18    19 ar  
    40    18    33 ar  
    41    19    20 ar  
    42    19    47 1   
    43    20    21 ar  
    44    20    48 1   
    45    21    52 1   
    46    22    32 ar  
    47    22    52 1   
    48    23    24 1   
    49    24    49 1   
    50    26    50 1   
    51    28    29 1   
    52    28    30 1   
    53    28    31 1   
    54    32    51 1   
    55    33    34 1   
    56    45    53 1   
@<TRIPOS>SUBSTRUCTURE
     1 GIG         1 TEMP              0 ****  ****    0 ROOT
