@<TRIPOS>MOLECULE
GIG
   53    56     1     0     0
SMALL
No Charge or Current Charge


@<TRIPOS>ATOM
      1 C5          13.7230    -2.2510     0.6930 ca         1 GIG      -0.181300
      2 C6          12.4100    -1.7700     0.4820 ca         1 GIG      -0.077000
      3 C7          11.8530    -1.7210    -0.8170 ca         1 GIG      -0.033000
      4 C8          12.6330    -2.1680    -1.9030 ca         1 GIG       0.129000
      5 C10         14.4780    -2.6990    -0.4130 ca         1 GIG      -0.068000
      6 N12         10.5370    -1.2450    -1.0930 ns         1 GIG      -0.161000
      7 C13          9.5340    -0.7320    -0.2810 c          1 GIG       0.667100
      8 C17          6.1840     0.3170    -1.6690 ca         1 GIG      -0.092500
      9 C20          5.5540     1.0970     0.9520 ca         1 GIG      -0.143500
     10 C21          6.8200     0.5540     0.6660 ca         1 GIG      -0.092500
     11 C24          1.8940     2.5650     1.9160 ca         1 GIG      -0.064000
     12 C36         -2.8950     2.5790     8.7320 c3         1 GIG       0.169900
     13 O35         -2.2360     3.0870     7.5570 os         1 GIG      -0.440100
     14 C33         -1.4550     2.2250     6.8450 c          1 GIG       0.657100
     15 O34         -1.2630     1.0500     7.1170 o          1 GIG      -0.538000
     16 C27         -0.0910     2.3950     4.8250 cc         1 GIG       0.505400
     17 N28          0.3920     1.0970     4.7390 na         1 GIG      -0.316600
     18 C29          1.1850     1.0420     3.6360 ca         1 GIG      -0.081200
     19 C30          1.9070    -0.0260     3.0910 ca         1 GIG      -0.095000
     20 C31          2.6480     0.2260     1.9170 ca         1 GIG      -0.109000
     21 C23          2.6490     1.5230     1.3370 ca         1 GIG       0.074100
     22 C19          4.5980     1.2390    -0.0700 ca         1 GIG       0.128100
     23 C16          7.1450     0.1550    -0.6510 ca         1 GIG      -0.063000
     24 N15          8.4040    -0.4010    -1.0180 ns         1 GIG      -0.162000
     25 O14          9.6350    -0.5920     0.9320 o          1 GIG      -0.601100
     26 C9          13.9330    -2.6540    -1.7050 ca         1 GIG      -0.126000
     27 F11         12.1290    -2.1350    -3.1580 f          1 GIG      -0.183000
     28 C2          14.2980    -2.3010     2.1140 c3         1 GIG       0.359300
     29 F3          15.6480    -2.3900     2.1310 f          1 GIG      -0.111667
     30 F4          13.9750    -1.1990     2.8300 f          1 GIG      -0.111667
     31 F1          13.8250    -3.3680     2.7970 f          1 GIG      -0.111667
     32 C18          4.9190     0.8590    -1.3810 ca         1 GIG      -0.143500
     33 C25          1.1670     2.2900     3.0820 ca         1 GIG       0.097400
     34 N26          0.3650     3.1590     3.8200 nd         1 GIG      -0.625100
     35 H6          11.8360    -1.4420     1.3440 ha         1 GIG       0.171000
     36 H10         15.4870    -3.0860    -0.2780 ha         1 GIG       0.139000
     37 HN12        10.2910    -1.2920    -2.0730 hn         1 GIG       0.161000
     38 H17          6.4160     0.0210    -2.6900 ha         1 GIG       0.124000
     39 H20          5.3210     1.4100     1.9660 ha         1 GIG       0.131500
     40 H21          7.5310     0.4600     1.4800 ha         1 GIG       0.124000
     41 H24          1.8800     3.5560     1.4730 ha         1 GIG       0.144000
     42 H361        -3.5730     1.7540     8.4760 h1         1 GIG       0.056700
     43 H362        -3.4880     3.3690     9.2090 h1         1 GIG       0.056700
     44 H363        -2.1650     2.2130     9.4650 h1         1 GIG       0.056700
     45 HN32        -1.1920     3.8560     5.7130 hn         1 GIG       0.367500
     46 HN28         0.1780     0.3520     5.3890 hn         1 GIG       0.390000
     47 H30          1.8970    -1.0120     3.5510 ha         1 GIG       0.126000
     48 H31          3.2140    -0.5800     1.4570 ha         1 GIG       0.132000
     49 HN15         8.4890    -0.5890    -2.0090 hn         1 GIG       0.150000
     50 H9          14.5160    -2.9980    -2.5550 ha         1 GIG       0.139000
     51 H18          4.1860     0.9810    -2.1740 ha         1 GIG       0.131500
     52 O22          3.3570     1.7800     0.1830 os         1 GIG      -0.251200
     53 N32         -0.9250     2.8880     5.7830 ns         1 GIG      -0.404400
@<TRIPOS>BOND
     1     1     2 ar  
     2     1     5 ar  
     3     1    28 1   
     4     2     3 ar  
     5     2    35 1   
     6     3     4 ar  
     7     3     6 1   
     8     4    26 ar  
     9     4    27 1   
    10     5    26 ar  
    11     5    36 1   
    12     6     7 1   
    13     6    37 1   
    14     7    24 1   
    15     7    25 2   
    16     8    23 ar  
    17     8    32 ar  
    18     8    38 1   
    19     9    10 ar  
    20     9    22 ar  
    21     9    39 1   
    22    10    23 ar  
    23    10    40 1   
    24    11    21 ar  
    25    11    33 ar  
    26    11    41 1   
    27    12    13 1   
    28    12    42 1   
    29    12    43 1   
    30    12    44 1   
    31    13    14 1   
    32    14    15 2   
    33    14    53 1   
    34    16    17 1   
    35    16    34 2   
    36    16    53 1   
    37    17    18 1   
    38    17    46 1   
    39    18    19 ar  
    40    18    33 ar  
    41    19    20 ar  
    42    19    47 1   
    43    20    21 ar  
    44    20    48 1   
    45    21    52 1   
    46    22    32 ar  
    47    22    52 1   
    48    23    24 1   
    49    24    49 1   
    50    26    50 1   
    51    28    29 1   
    52    28    30 1   
    53    28    31 1   
    54    32    51 1   
    55    33    34 1   
    56    45    53 1   
@<TRIPOS>SUBSTRUCTURE
     1 GIG         1 TEMP              0 ****  ****    0 ROOT
