@<TRIPOS>MOLECULE
GIH
   58    62     1     0     0
SMALL
abcg2


@<TRIPOS>ATOM
      1 C10        -31.8590    -0.6360    13.7250 c6         1 GIH      -0.073900
      2 N12        -30.5470    -0.2770    17.3340 nu         1 GIH      -0.857100
      3 C13        -30.7940    -0.4200    18.6380 ca         1 GIH       0.428900
      4 C15        -31.2830    -1.7890    20.4140 ca         1 GIH       0.357800
      5 C17        -32.4070    -3.5370    21.8950 cc         1 GIH      -0.100100
      6 C21        -31.6560    -6.9190    19.1370 ca         1 GIH       0.313900
      7 C22        -31.0270    -5.9450    18.3630 ca         1 GIH       0.083000
      8 C24        -30.9350    -4.6320    18.7610 ca         1 GIH      -0.038000
      9 C26        -31.1140    -0.6970    21.3000 ca         1 GIH      -0.575500
     10 C02        -28.2840    -1.2530    15.0650 c          1 GIH       0.720000
     11 O03        -27.8610    -2.0640    15.9120 o          1 GIH      -0.722500
     12 C04        -29.7840    -0.8670    15.0930 c6         1 GIH      -0.204700
     13 C05        -30.5270    -1.3810    13.8480 c6         1 GIH      -0.041700
     14 C06        -30.8090    -2.8770    13.9960 c6         1 GIH      -0.073900
     15 C07        -31.8230    -3.0870    15.1420 c6         1 GIH      -0.065900
     16 C08        -31.9620    -1.7900    15.9420 c6         1 GIH      -0.078700
     17 C09        -32.6210    -0.7270    15.0630 c6         1 GIH      -0.065900
     18 C11        -30.5500    -1.3350    16.3410 c6         1 GIH       0.243500
     19 N14        -31.0920    -1.6310    19.1100 nb         1 GIH      -0.273000
     20 C16        -31.6880    -3.1350    20.7890 cd         1 GIH      -0.235000
     21 N18        -32.6610    -4.8610    21.8360 na         1 GIH      -0.312400
     22 C19        -32.1360    -5.3760    20.6850 ca         1 GIH       0.334500
     23 N20        -32.2100    -6.6370    20.3050 nb         1 GIH      -0.677000
     24 C25        -31.5220    -4.3160    19.9850 ca         1 GIH      -0.061800
     25 P27        -31.0540    -0.8070    23.0800 py         1 GIH       1.290300
     26 O28        -30.3430    -1.9690    23.6580 o          1 GIH      -0.567000
     27 O29        -30.4450     0.6300    23.4460 os         1 GIH      -0.612400
     28 C30        -30.2030     0.9760    24.8120 c3         1 GIH       0.196900
     29 O31        -32.5580    -0.7790    23.6570 os         1 GIH      -0.612400
     30 C32        -33.5080     0.1920    23.2240 c3         1 GIH       0.196900
     31 C33        -30.8720     0.5340    20.6760 ca         1 GIH       0.219900
     32 N34        -30.7310     0.7000    19.3830 nb         1 GIH      -0.278000
     33 H102       -31.6800     0.4060    13.4530 hc         1 GIH       0.034200
     34 H101       -32.4460    -1.0740    12.9130 hc         1 GIH       0.034200
     35 H121       -30.3550     0.6650    17.0330 hn         1 GIH       0.506000
     36 H211       -31.7050    -7.9440    18.7890 h4         1 GIH       0.026100
     37 H241       -30.4480    -3.8880    18.1460 ha         1 GIH       0.181000
     38 H041       -29.8240     0.2300    15.0400 hc         1 GIH       0.034700
     39 H051       -29.9150    -1.1960    12.9640 hc         1 GIH       0.073700
     40 H061       -31.1970    -3.2780    13.0570 hc         1 GIH       0.034200
     41 H062       -29.8800    -3.4130    14.2010 hc         1 GIH       0.034200
     42 H071       -32.8020    -3.3700    14.7470 hc         1 GIH       0.025950
     43 H072       -31.5040    -3.9040    15.7930 hc         1 GIH       0.025950
     44 H081       -32.5570    -1.9700    16.8400 hc         1 GIH       0.049700
     45 H091       -32.6170     0.2350    15.5820 hc         1 GIH       0.025950
     46 H092       -33.6710    -0.9800    14.8990 hc         1 GIH       0.025950
     47 H111       -30.0180    -2.1910    16.7640 h1         1 GIH       0.106700
     48 H181       -33.1860    -5.3810    22.5230 hn         1 GIH       0.359000
     49 H303       -29.7750     1.9740    24.8140 h1         1 GIH       0.036367
     50 H301       -31.1280     0.9860    25.3910 h1         1 GIH       0.036367
     51 H302       -29.4980     0.2850    25.2750 h1         1 GIH       0.036367
     52 H322       -34.4560    -0.0570    23.6960 h1         1 GIH       0.036367
     53 H323       -33.2170     1.1990    23.5270 h1         1 GIH       0.036367
     54 H321       -33.6380     0.1700    22.1410 h1         1 GIH       0.036367
     55 H331       -30.7870     1.4380    21.2680 h4         1 GIH       0.016100
     56 F23        -30.5100    -6.3160    17.1790 f          1 GIH      -0.171000
     57 O01        -27.6190    -0.7100    14.1580 o          1 GIH      -0.722500
     58 H171       -32.8040    -2.9640    22.7150 h4         1 GIH       0.223000
@<TRIPOS>BOND
     1     1    13 1   
     2     1    17 1   
     3     1    33 1   
     4     1    34 1   
     5     2     3 1   
     6     2    18 1   
     7     2    35 1   
     8     3    19 ar  
     9     3    32 ar  
    10     4     9 ar  
    11     4    19 ar  
    12     4    20 1   
    13     5    20 2   
    14     5    21 1   
    15     5    58 1   
    16     6     7 ar  
    17     6    23 ar  
    18     6    36 1   
    19     7     8 ar  
    20     7    56 1   
    21     8    24 ar  
    22     8    37 1   
    23     9    25 1   
    24     9    31 ar  
    25    10    11 1   
    26    10    12 1   
    27    10    57 1   
    28    12    13 1   
    29    12    18 1   
    30    12    38 1   
    31    13    14 1   
    32    13    39 1   
    33    14    15 1   
    34    14    40 1   
    35    14    41 1   
    36    15    16 1   
    37    15    42 1   
    38    15    43 1   
    39    16    17 1   
    40    16    18 1   
    41    16    44 1   
    42    17    45 1   
    43    17    46 1   
    44    18    47 1   
    45    20    24 1   
    46    21    22 1   
    47    21    48 1   
    48    22    23 ar  
    49    22    24 ar  
    50    25    26 2   
    51    25    27 1   
    52    25    29 1   
    53    27    28 1   
    54    28    49 1   
    55    28    50 1   
    56    28    51 1   
    57    29    30 1   
    58    30    52 1   
    59    30    53 1   
    60    30    54 1   
    61    31    32 ar  
    62    31    55 1   
@<TRIPOS>SUBSTRUCTURE
     1 GIH         1 TEMP              0 ****  ****    0 ROOT
