@<TRIPOS>MOLECULE
GIH
   58    62     1     0     0
SMALL
No Charge or Current Charge


@<TRIPOS>ATOM
      1 C10        -31.9250    -0.1540    13.9000 c6         1 GIH      -0.073900
      2 N12        -30.3520    -0.4210    17.3090 nu         1 GIH      -0.857100
      3 C13        -30.5760    -0.5680    18.6700 ca         1 GIH       0.428900
      4 C15        -31.1240    -1.9140    20.4490 ca         1 GIH       0.357800
      5 C17        -32.6180    -3.5120    21.7930 cc         1 GIH      -0.100100
      6 C21        -30.8850    -7.1100    19.5660 ca         1 GIH       0.313900
      7 C22        -30.0660    -6.1390    18.9380 ca         1 GIH       0.083000
      8 C24        -30.2130    -4.7860    19.2890 ca         1 GIH      -0.038000
      9 C26        -30.9930    -0.7970    21.2970 ca         1 GIH      -0.575500
     10 C02        -28.4870    -1.8260    14.8040 c          1 GIH       0.720000
     11 O03        -28.4910    -3.0480    14.8390 o          1 GIH      -0.722500
     12 C04        -29.8230    -1.0650    14.9590 c6         1 GIH      -0.204700
     13 C05        -30.7890    -1.2090    13.7300 c6         1 GIH      -0.041700
     14 C06        -31.4630    -2.6180    13.7080 c6         1 GIH      -0.073900
     15 C07        -32.2500    -2.8660    15.0330 c6         1 GIH      -0.065900
     16 C08        -32.1010    -1.6410    15.9830 c6         1 GIH      -0.078700
     17 C09        -32.6750    -0.3860    15.2510 c6         1 GIH      -0.065900
     18 C11        -30.5730    -1.4510    16.2750 c6         1 GIH       0.243500
     19 N14        -30.9180    -1.7800    19.1270 nb         1 GIH      -0.273000
     20 C16        -31.6170    -3.2480    20.8660 cd         1 GIH      -0.235000
     21 N18        -32.7870    -4.9110    21.7500 na         1 GIH      -0.312400
     22 C19        -31.9460    -5.5020    20.8320 ca         1 GIH       0.334500
     23 N20        -31.8180    -6.8050    20.5100 nb         1 GIH      -0.677000
     24 C25        -31.1940    -4.4980    20.2530 ca         1 GIH      -0.061800
     25 P27        -31.1400    -0.8820    23.0900 py         1 GIH       1.290300
     26 O28        -30.6150    -2.1170    23.7310 o          1 GIH      -0.567000
     27 O29        -30.5040     0.5140    23.5940 os         1 GIH      -0.612400
     28 C30        -30.6440     0.9060    24.9650 c3         1 GIH       0.196900
     29 O31        -32.7200    -0.6080    23.3020 os         1 GIH      -0.612400
     30 C32        -33.4180     0.4210    22.5840 c3         1 GIH       0.196900
     31 C33        -30.6260     0.4270    20.7140 ca         1 GIH       0.219900
     32 N34        -30.4200     0.5450    19.3940 nb         1 GIH      -0.278000
     33 H102       -31.5110     0.8630    13.8690 hc         1 GIH       0.034200
     34 H101       -32.6320    -0.2220    13.0620 hc         1 GIH       0.034200
     35 H121       -30.1320     0.5260    17.0090 hn         1 GIH       0.506000
     36 H211       -30.7850    -8.1640    19.3090 h4         1 GIH       0.026100
     37 H241       -29.5880    -4.0210    18.8380 ha         1 GIH       0.181000
     38 H041       -29.5530     0.0010    14.9930 hc         1 GIH       0.034700
     39 H051       -30.2460    -1.0290    12.7910 hc         1 GIH       0.073700
     40 H061       -32.1490    -2.6880    12.8530 hc         1 GIH       0.034200
     41 H062       -30.7170    -3.4080    13.5540 hc         1 GIH       0.034200
     42 H071       -33.3110    -3.0460    14.8120 hc         1 GIH       0.025950
     43 H072       -31.8790    -3.7750    15.5270 hc         1 GIH       0.025950
     44 H081       -32.6560    -1.8270    16.9130 hc         1 GIH       0.049700
     45 H091       -32.5860     0.5030    15.8890 hc         1 GIH       0.025950
     46 H092       -33.7490    -0.5200    15.0620 hc         1 GIH       0.025950
     47 H111       -30.1780    -2.4180    16.6280 h1         1 GIH       0.106700
     48 H181       -33.4530    -5.4360    22.3030 hn         1 GIH       0.359000
     49 H303       -30.1470     1.8690    25.1390 h1         1 GIH       0.036367
     50 H301       -31.7020     1.0170    25.2370 h1         1 GIH       0.036367
     51 H302       -30.1900     0.1630    25.6340 h1         1 GIH       0.036367
     52 H322       -34.4550     0.4900    22.9330 h1         1 GIH       0.036367
     53 H323       -32.9430     1.3990    22.7360 h1         1 GIH       0.036367
     54 H321       -33.4410     0.2080    21.5080 h1         1 GIH       0.036367
     55 H331       -30.4890     1.3370    21.2950 h4         1 GIH       0.016100
     56 F23        -29.1470    -6.5070    18.0150 f          1 GIH      -0.171000
     57 O01        -27.4660    -1.1630    14.6970 o          1 GIH      -0.722500
     58 H171       -33.2300    -2.8640    22.4150 h4         1 GIH       0.223000
@<TRIPOS>BOND
     1     1    13 1   
     2     1    17 1   
     3     1    33 1   
     4     1    34 1   
     5     2     3 1   
     6     2    18 1   
     7     2    35 1   
     8     3    19 ar  
     9     3    32 ar  
    10     4     9 ar  
    11     4    19 ar  
    12     4    20 1   
    13     5    20 2   
    14     5    21 1   
    15     5    58 1   
    16     6     7 ar  
    17     6    23 ar  
    18     6    36 1   
    19     7     8 ar  
    20     7    56 1   
    21     8    24 ar  
    22     8    37 1   
    23     9    25 1   
    24     9    31 ar  
    25    10    11 1   
    26    10    12 1   
    27    10    57 1   
    28    12    13 1   
    29    12    18 1   
    30    12    38 1   
    31    13    14 1   
    32    13    39 1   
    33    14    15 1   
    34    14    40 1   
    35    14    41 1   
    36    15    16 1   
    37    15    42 1   
    38    15    43 1   
    39    16    17 1   
    40    16    18 1   
    41    16    44 1   
    42    17    45 1   
    43    17    46 1   
    44    18    47 1   
    45    20    24 1   
    46    21    22 1   
    47    21    48 1   
    48    22    23 ar  
    49    22    24 ar  
    50    25    26 2   
    51    25    27 1   
    52    25    29 1   
    53    27    28 1   
    54    28    49 1   
    55    28    50 1   
    56    28    51 1   
    57    29    30 1   
    58    30    52 1   
    59    30    53 1   
    60    30    54 1   
    61    31    32 ar  
    62    31    55 1   
@<TRIPOS>SUBSTRUCTURE
     1 GIH         1 TEMP              0 ****  ****    0 ROOT
