@<TRIPOS>MOLECULE
GII
   58    59     1     0     0
SMALL
No Charge or Current Charge


@<TRIPOS>ATOM
      1 N1         -35.2870   -30.5270   -68.9350 n3         1 GII      -0.722600
      2 N3         -43.5250   -25.5760   -63.1260 no         1 GII       0.691100
      3 C4         -33.4530   -29.0470   -67.8410 c3         1 GII       0.157600
      4 C5         -36.3750   -29.6520   -68.4090 c3         1 GII       0.179800
      5 C6         -36.8690   -29.9840   -66.9780 c3         1 GII      -0.117400
      6 C7         -37.9870   -29.0330   -66.4990 c3         1 GII      -0.075400
      7 C8         -38.4850   -29.3590   -65.0720 c3         1 GII      -0.073400
      8 C10        -40.8850   -28.4080   -65.3080 c3         1 GII       0.074600
      9 C13        -45.2750   -26.1100   -64.8200 cc         1 GII      -0.212600
     10 C15        -44.9380   -27.7010   -66.6720 cc         1 GII      -0.148600
     11 C17        -35.7570   -31.9210   -69.1980 c6         1 GII       0.132800
     12 C1         -33.3770   -32.7980   -69.1350 c6         1 GII       0.179300
     13 C11        -43.1510   -27.2450   -65.0710 cd         1 GII       0.428900
     14 C12        -43.9750   -26.3010   -64.3220 cd         1 GII      -0.347700
     15 C14        -45.7830   -26.7800   -65.9880 cc         1 GII       0.397900
     16 C16        -43.6470   -27.9350   -66.2360 cd         1 GII      -0.365600
     17 C18        -34.7070   -32.7890   -69.9500 c6         1 GII       0.171300
     18 C2         -32.8850   -31.3420   -68.8900 c6         1 GII       0.130300
     19 C3         -33.9890   -30.4980   -68.1560 c6         1 GII       0.172500
     20 C9         -39.5530   -28.3790   -64.5300 c3         1 GII      -0.092400
     21 N2         -41.8610   -27.5100   -64.6810 nu         1 GII      -0.473700
     22 N4         -46.9940   -26.5950   -66.4280 nf         1 GII      -0.399400
     23 N5         -47.5060   -25.4540   -66.4040 n1         1 GII       0.123700
     24 N6         -48.0830   -24.4770   -66.4860 n1         1 GII      -0.033000
     25 O1         -32.3320   -33.5330   -69.8040 oh         1 GII      -0.644000
     26 O2         -31.6320   -31.3800   -68.1600 oh         1 GII      -0.731000
     27 O3         -33.0730   -28.3020   -69.0130 oh         1 GII      -0.650000
     28 O4         -42.3900   -25.7790   -62.6810 o          1 GII      -0.427000
     29 O5         -44.3170   -24.7840   -62.6030 o          1 GII      -0.427000
     30 O6         -35.2170   -34.1290   -70.1500 oh         1 GII      -0.700000
     31 H2         -32.5920   -29.1360   -67.1660 h1         1 GII       0.024200
     32 H3         -34.2170   -28.4970   -67.2780 h1         1 GII       0.024200
     33 H4         -36.0560   -28.6020   -68.4330 h1         1 GII       0.055700
     34 H5         -37.2390   -29.7100   -69.0850 h1         1 GII       0.055700
     35 H6         -37.2450   -31.0130   -66.9460 hc         1 GII       0.042200
     36 H7         -36.0310   -29.9240   -66.2740 hc         1 GII       0.042200
     37 H8         -37.6170   -28.0000   -66.5250 hc         1 GII       0.039200
     38 H9         -38.8260   -29.0920   -67.2040 hc         1 GII       0.039200
     39 H10        -38.8890   -30.3800   -65.0510 hc         1 GII       0.045700
     40 H11        -37.6280   -29.3480   -64.3870 hc         1 GII       0.045700
     41 H12        -41.2780   -29.4340   -65.3160 h1         1 GII       0.046700
     42 H13        -40.7140   -28.0950   -66.3460 h1         1 GII       0.046700
     43 H15        -45.3380   -28.2080   -67.5460 ha         1 GII       0.204000
     44 H16        -36.6790   -31.8950   -69.7990 h1         1 GII       0.038700
     45 H17        -36.0060   -32.4210   -68.2510 h1         1 GII       0.038700
     46 H18        -33.5800   -33.2560   -68.1550 h1         1 GII       0.047700
     47 H19        -43.0250   -28.6380   -66.7790 ha         1 GII       0.195000
     48 H20        -34.5070   -32.3140   -70.9230 h1         1 GII       0.057700
     49 H21        -32.7240   -30.8800   -69.8770 h1         1 GII       0.072700
     50 H22        -34.1600   -30.9760   -67.1800 h1         1 GII       0.037700
     51 H23        -39.1460   -27.3600   -64.5400 hc         1 GII       0.054700
     52 H24        -39.7500   -28.6310   -63.4810 hc         1 GII       0.054700
     53 H25        -41.5700   -27.0020   -63.8490 hn         1 GII       0.373000
     54 H30        -31.5070   -33.2080   -69.3770 ho         1 GII       0.454000
     55 H31        -31.2140   -30.4920   -68.2660 ho         1 GII       0.512000
     56 H32        -32.8950   -27.3800   -68.7230 ho         1 GII       0.441000
     57 H33        -35.8650   -34.0800   -70.8900 ho         1 GII       0.501000
     58 H14        -45.9610   -25.4340   -64.3170 ha         1 GII       0.214000
@<TRIPOS>BOND
     1     1     4 1   
     2     1    11 1   
     3     1    19 1   
     4     2    14 1   
     5     2    28 1   
     6     2    29 1   
     7     3    19 1   
     8     3    27 1   
     9     3    31 1   
    10     3    32 1   
    11     4     5 1   
    12     4    33 1   
    13     4    34 1   
    14     5     6 1   
    15     5    35 1   
    16     5    36 1   
    17     6     7 1   
    18     6    37 1   
    19     6    38 1   
    20     7    20 1   
    21     7    39 1   
    22     7    40 1   
    23     8    20 1   
    24     8    21 1   
    25     8    41 1   
    26     8    42 1   
    27     9    14 2   
    28     9    15 1   
    29     9    58 1   
    30    10    15 1   
    31    10    16 2   
    32    10    43 1   
    33    11    17 1   
    34    11    44 1   
    35    11    45 1   
    36    12    17 1   
    37    12    18 1   
    38    12    25 1   
    39    12    46 1   
    40    13    14 1   
    41    13    16 1   
    42    13    21 2   
    43    15    22 2   
    44    16    47 1   
    45    17    30 1   
    46    17    48 1   
    47    18    19 1   
    48    18    26 1   
    49    18    49 1   
    50    19    50 1   
    51    20    51 1   
    52    20    52 1   
    53    21    53 1   
    54    22    23 1   
    55    23    24 3   
    56    25    54 1   
    57    26    55 1   
    58    27    56 1   
    59    30    57 1   
@<TRIPOS>SUBSTRUCTURE
     1 GII         1 TEMP              0 ****  ****    0 ROOT
