@<TRIPOS>MOLECULE
GII
   58    59     1     0     0
SMALL
bcc


@<TRIPOS>ATOM
      1 N1         -35.3800   -30.5080   -68.7360 n3         1 GII      -0.722600
      2 N3         -43.6530   -25.5910   -63.4010 no         1 GII       0.311100
      3 C4         -33.5410   -29.1460   -67.7540 c3         1 GII       0.134400
      4 C5         -36.3710   -29.6330   -68.1370 c3         1 GII       0.179800
      5 C6         -36.8140   -29.9560   -66.7100 c3         1 GII      -0.117400
      6 C7         -37.8760   -28.9780   -66.2270 c3         1 GII      -0.075400
      7 C8         -38.3860   -29.2990   -64.8260 c3         1 GII      -0.073400
      8 C10        -40.7500   -28.4250   -65.1030 c3         1 GII       0.045300
      9 C13        -45.1060   -26.1210   -65.2430 cc         1 GII      -0.162600
     10 C15        -44.5090   -27.7320   -66.8990 cc         1 GII      -0.098600
     11 C17        -35.8780   -31.8500   -68.9470 c6         1 GII       0.132800
     12 C1         -33.5850   -32.6570   -69.3980 c6         1 GII       0.156100
     13 C11        -42.9320   -27.2760   -65.0910 cd         1 GII       0.428900
     14 C12        -43.8860   -26.3480   -64.5910 cd         1 GII      -0.347700
     15 C14        -45.4270   -26.8000   -66.3920 cc         1 GII       0.397900
     16 C16        -43.3150   -27.9590   -66.2740 cd         1 GII      -0.315600
     17 C18        -35.0000   -32.6100   -69.9350 c6         1 GII       0.148100
     18 C2         -33.1050   -31.2440   -69.0840 c6         1 GII       0.107100
     19 C3         -34.0620   -30.5270   -68.1170 c6         1 GII       0.172500
     20 C9         -39.4530   -28.3380   -64.3120 c3         1 GII      -0.092400
     21 N2         -41.7360   -27.5270   -64.5410 nu         1 GII      -0.394100
     22 N4         -46.6190   -26.6480   -67.1220 nf         1 GII      -0.399400
     23 N5         -47.4440   -25.8380   -66.7320 n1         1 GII       0.123700
     24 N6         -48.2660   -25.1250   -66.4560 n1         1 GII      -0.033000
     25 O1         -32.7510   -33.2800   -70.3430 oh         1 GII      -0.581800
     26 O2         -31.8060   -31.3750   -68.5430 oh         1 GII      -0.608800
     27 O3         -33.4440   -28.3440   -68.9090 oh         1 GII      -0.587800
     28 O4         -42.6260   -25.7830   -62.7700 o          1 GII      -0.237000
     29 O5         -44.4820   -24.7790   -63.0460 o          1 GII      -0.237000
     30 O6         -35.4510   -33.9330   -70.1130 oh         1 GII      -0.577800
     31 H2         -32.5680   -29.2760   -67.2650 h1         1 GII       0.024200
     32 H3         -34.1930   -28.6910   -66.9990 h1         1 GII       0.024200
     33 H4         -36.0090   -28.6020   -68.1790 h1         1 GII       0.055700
     34 H5         -37.2520   -29.6580   -68.7870 h1         1 GII       0.055700
     35 H6         -37.2150   -30.9740   -66.6640 hc         1 GII       0.042200
     36 H7         -35.9570   -29.9330   -66.0280 hc         1 GII       0.042200
     37 H8         -37.4720   -27.9600   -66.2390 hc         1 GII       0.039200
     38 H9         -38.7050   -28.9830   -66.9410 hc         1 GII       0.039200
     39 H10        -38.7800   -30.3210   -64.8070 hc         1 GII       0.045700
     40 H11        -37.5430   -29.2870   -64.1310 hc         1 GII       0.045700
     41 H12        -41.1170   -29.4570   -65.0940 h1         1 GII       0.046700
     42 H13        -40.5710   -28.1620   -66.1490 h1         1 GII       0.046700
     43 H15        -44.7530   -28.2800   -67.7990 ha         1 GII       0.154000
     44 H16        -36.8940   -31.7880   -69.3490 h1         1 GII       0.038700
     45 H17        -35.9380   -32.4360   -68.0140 h1         1 GII       0.038700
     46 H18        -33.6010   -33.2280   -68.4520 h1         1 GII       0.047700
     47 H19        -42.6470   -28.6930   -66.7010 ha         1 GII       0.145000
     48 H20        -34.9940   -32.0580   -70.8860 h1         1 GII       0.057700
     49 H21        -33.0820   -30.6780   -70.0240 h1         1 GII       0.072700
     50 H22        -34.0700   -31.0990   -67.1700 h1         1 GII       0.037700
     51 H23        -39.0760   -27.3120   -64.3440 hc         1 GII       0.054700
     52 H24        -39.6630   -28.5640   -63.2620 hc         1 GII       0.054700
     53 H25        -41.5100   -27.0530   -63.6830 hn         1 GII       0.322700
     54 H30        -31.8470   -33.2150   -70.0140 ho         1 GII       0.415000
     55 H31        -31.2890   -30.5990   -68.7770 ho         1 GII       0.413000
     56 H32        -33.0610   -27.5000   -68.6540 ho         1 GII       0.402000
     57 H33        -36.3190   -33.9010   -70.5280 ho         1 GII       0.402000
     58 H14        -45.7880   -25.3980   -64.8160 ha         1 GII       0.164000
@<TRIPOS>BOND
     1     1     4 1   
     2     1    11 1   
     3     1    19 1   
     4     2    14 1   
     5     2    28 1   
     6     2    29 1   
     7     3    19 1   
     8     3    27 1   
     9     3    31 1   
    10     3    32 1   
    11     4     5 1   
    12     4    33 1   
    13     4    34 1   
    14     5     6 1   
    15     5    35 1   
    16     5    36 1   
    17     6     7 1   
    18     6    37 1   
    19     6    38 1   
    20     7    20 1   
    21     7    39 1   
    22     7    40 1   
    23     8    20 1   
    24     8    21 1   
    25     8    41 1   
    26     8    42 1   
    27     9    14 2   
    28     9    15 1   
    29     9    58 1   
    30    10    15 1   
    31    10    16 2   
    32    10    43 1   
    33    11    17 1   
    34    11    44 1   
    35    11    45 1   
    36    12    17 1   
    37    12    18 1   
    38    12    25 1   
    39    12    46 1   
    40    13    14 1   
    41    13    16 1   
    42    13    21 2   
    43    15    22 2   
    44    16    47 1   
    45    17    30 1   
    46    17    48 1   
    47    18    19 1   
    48    18    26 1   
    49    18    49 1   
    50    19    50 1   
    51    20    51 1   
    52    20    52 1   
    53    21    53 1   
    54    22    23 1   
    55    23    24 3   
    56    25    54 1   
    57    26    55 1   
    58    27    56 1   
    59    30    57 1   
@<TRIPOS>SUBSTRUCTURE
     1 GII         1 TEMP              0 ****  ****    0 ROOT
