@<TRIPOS>MOLECULE
GIJ
   57    59     1     0     0
SMALL
No Charge or Current Charge


@<TRIPOS>ATOM
      1 C01         36.9360   -42.8830    29.2530 c3         1 GIJ      -0.083100
      2 C02         36.9450   -41.6780    28.2880 c3         1 GIJ      -0.010100
      3 C03         36.3500   -40.4160    28.8940 cc         1 GIJ      -0.034300
      4 C04         37.0150   -39.4730    29.6590 cd         1 GIJ      -0.239500
      5 C05         38.3990   -39.4870    30.0970 cd         1 GIJ       0.431500
      6 C06         38.8710   -38.4270    30.8390 cc         1 GIJ      -0.311000
      7 C08         40.4760   -40.1870    30.3910 cc         1 GIJ       0.711300
      8 C10         42.7820   -40.9080    31.1410 c6         1 GIJ       0.196800
      9 C11         42.9080   -42.0750    32.1810 c6         1 GIJ       0.138800
     10 C13         42.3110   -43.5040    30.2520 c6         1 GIJ       0.152800
     11 C14         41.4580   -42.3820    29.5490 c6         1 GIJ       0.111500
     12 C15         41.6600   -42.3290    27.9850 c          1 GIJ       0.608100
     13 C18         42.6120   -43.4920    25.9530 c3         1 GIJ       0.113000
     14 C19         41.3510   -43.9740    25.1970 c3         1 GIJ      -0.177400
     15 C20         40.8180   -45.3640    25.6090 c3         1 GIJ       0.300000
     16 C26         34.8720   -38.7470    29.4480 cd         1 GIJ      -0.070300
     17 C27         33.6960   -37.8200    29.6550 c3         1 GIJ      -0.032800
     18 C28         34.9830   -39.9540    28.7750 cc         1 GIJ      -0.262600
     19 C29         33.7960   -40.5830    28.0770 c          1 GIJ       0.614700
     20 C30         33.8820   -41.9250    27.3500 c3         1 GIJ      -0.191100
     21 F21         39.8150   -45.7450    24.7860 f          1 GIJ      -0.121000
     22 F22         41.7900   -46.3010    25.5360 f          1 GIJ      -0.121000
     23 F23         40.3320   -45.3570    26.8710 f          1 GIJ      -0.121000
     24 N09         41.5560   -41.0480    30.2910 nh         1 GIJ      -0.795300
     25 N12         42.2970   -43.3700    31.7380 n7         1 GIJ      -0.851400
     26 N17         42.3980   -43.3450    27.3960 ns         1 GIJ      -0.495900
     27 N24         39.3140   -40.4910    29.8520 nd         1 GIJ      -0.725000
     28 N25         36.1210   -38.4560    29.9810 na         1 GIJ      -0.095000
     29 O16         41.1850   -41.4330    27.2960 o          1 GIJ      -0.608100
     30 O31         32.7000   -40.0350    28.0700 o          1 GIJ      -0.564100
     31 S07         40.5450   -38.6610    31.2490 ss         1 GIJ      -0.092400
     32 H1          37.3390   -43.7740    28.7550 hc         1 GIJ       0.036367
     33 H2          37.5510   -42.6780    30.1360 hc         1 GIJ       0.036367
     34 H3          35.9210   -43.1090    29.5980 hc         1 GIJ       0.036367
     35 H4          36.4640   -41.9490    27.3500 hc         1 GIJ       0.049200
     36 H5          37.9750   -41.4920    27.9700 hc         1 GIJ       0.049200
     37 H6          38.3640   -37.5310    31.1670 h4         1 GIJ       0.156000
     38 H7          43.6670   -40.9340    30.4890 h1         1 GIJ       0.063700
     39 H8          42.8290   -39.9480    31.6730 h1         1 GIJ       0.063700
     40 H9          43.9770   -42.2290    32.3930 h1         1 GIJ       0.058200
     41 H10         42.4380   -41.7690    33.1280 h1         1 GIJ       0.058200
     42 H11         41.9200   -44.4930    29.9650 h1         1 GIJ       0.077700
     43 H12         43.3550   -43.4500    29.9050 h1         1 GIJ       0.077700
     44 H13         40.4250   -42.7460    29.6340 h1         1 GIJ       0.101700
     45 H14         43.4330   -44.2040    25.7910 h1         1 GIJ       0.065700
     46 H15         42.9330   -42.5240    25.5440 h1         1 GIJ       0.065700
     47 H16         41.5860   -43.9990    24.1260 hc         1 GIJ       0.093200
     48 H17         40.5490   -43.2360    25.3160 hc         1 GIJ       0.093200
     49 H18         32.8810   -38.3280    30.1850 hc         1 GIJ       0.057033
     50 H19         33.9740   -36.9420    30.2500 hc         1 GIJ       0.057033
     51 H20         33.3060   -37.4560    28.6980 hc         1 GIJ       0.057033
     52 H21         32.8950   -42.2890    27.0430 hc         1 GIJ       0.058367
     53 H22         34.5170   -41.8050    26.4660 hc         1 GIJ       0.058367
     54 H23         34.3960   -42.6640    27.9670 hc         1 GIJ       0.058367
     55 H24         41.3070   -43.3470    32.0180 hn         1 GIJ       0.419000
     56 H26         42.7760   -44.0610    28.0030 hn         1 GIJ       0.330500
     57 H27         36.3370   -37.6310    30.5320 hn         1 GIJ       0.346000
@<TRIPOS>BOND
     1     1     2 1   
     2     1    32 1   
     3     1    33 1   
     4     1    34 1   
     5     2     3 1   
     6     2    35 1   
     7     2    36 1   
     8     3     4 2   
     9     3    18 1   
    10     4     5 1   
    11     4    28 1   
    12     5     6 2   
    13     5    27 1   
    14     6    31 1   
    15     6    37 1   
    16     7    24 1   
    17     7    27 2   
    18     7    31 1   
    19     8     9 1   
    20     8    24 1   
    21     8    38 1   
    22     8    39 1   
    23     9    25 1   
    24     9    40 1   
    25     9    41 1   
    26    10    11 1   
    27    10    25 1   
    28    10    42 1   
    29    10    43 1   
    30    11    12 1   
    31    11    24 1   
    32    11    44 1   
    33    12    26 1   
    34    12    29 2   
    35    13    14 1   
    36    13    26 1   
    37    13    45 1   
    38    13    46 1   
    39    14    15 1   
    40    14    47 1   
    41    14    48 1   
    42    15    21 1   
    43    15    22 1   
    44    15    23 1   
    45    16    17 1   
    46    16    18 2   
    47    16    28 1   
    48    17    49 1   
    49    17    50 1   
    50    17    51 1   
    51    18    19 1   
    52    19    20 1   
    53    19    30 2   
    54    20    52 1   
    55    20    53 1   
    56    20    54 1   
    57    25    55 1   
    58    26    56 1   
    59    28    57 1   
@<TRIPOS>SUBSTRUCTURE
     1 GIJ         1 TEMP              0 ****  ****    0 ROOT
