@<TRIPOS>MOLECULE
GIJ
   57    59     1     0     0
SMALL
abcg2


@<TRIPOS>ATOM
      1 C01         36.5310   -42.8070    29.1820 c3         1 GIJ      -0.083100
      2 C02         36.7590   -41.6430    28.2190 c3         1 GIJ      -0.010100
      3 C03         36.3860   -40.3140    28.8050 cc         1 GIJ      -0.034300
      4 C04         37.2490   -39.4850    29.4900 cd         1 GIJ      -0.239500
      5 C05         38.6630   -39.5990    29.8030 cd         1 GIJ       0.431500
      6 C06         39.4780   -38.5660    30.1550 cc         1 GIJ      -0.311000
      7 C08         40.5300   -40.7540    30.0490 cc         1 GIJ       0.711300
      8 C10         42.7490   -41.7800    30.4190 c6         1 GIJ       0.196800
      9 C11         42.9740   -42.4910    31.7560 c6         1 GIJ       0.138800
     10 C13         41.6510   -44.1770    30.6340 c6         1 GIJ       0.152800
     11 C14         40.7500   -43.1440    29.9210 c6         1 GIJ       0.111500
     12 C15         40.4630   -43.5810    28.4910 c          1 GIJ       0.608100
     13 C18         40.8300   -43.1500    26.1140 c3         1 GIJ       0.113000
     14 C19         41.7140   -44.2930    25.6170 c3         1 GIJ      -0.177400
     15 C20         43.1890   -44.0810    25.8230 c3         1 GIJ       0.300000
     16 C26         35.2600   -38.4470    29.4860 cd         1 GIJ      -0.070300
     17 C27         34.3120   -37.3480    29.8090 c3         1 GIJ      -0.032800
     18 C28         35.1060   -39.6570    28.8030 cc         1 GIJ      -0.262600
     19 C29         33.8180   -40.0600    28.2420 c          1 GIJ       0.614700
     20 C30         33.7080   -41.3240    27.4270 c3         1 GIJ      -0.191100
     21 F21         43.9190   -44.9820    25.1470 f          1 GIJ      -0.121000
     22 F22         43.6010   -42.8720    25.4090 f          1 GIJ      -0.121000
     23 F23         43.5540   -44.1890    27.1110 f          1 GIJ      -0.121000
     24 N09         41.3500   -41.8280    30.0440 nh         1 GIJ      -0.795300
     25 N12         42.1390   -43.6800    31.8990 n7         1 GIJ      -0.851400
     26 N17         40.9800   -42.8280    27.5130 ns         1 GIJ      -0.495900
     27 N24         39.2700   -40.8270    29.7490 nd         1 GIJ      -0.725000
     28 N25         36.5390   -38.3740    29.8750 na         1 GIJ      -0.095000
     29 O16         39.8140   -44.5970    28.2880 o          1 GIJ      -0.608100
     30 O31         32.8190   -39.3780    28.4180 o          1 GIJ      -0.564100
     31 S07         41.0780   -39.1470    30.4510 ss         1 GIJ      -0.092400
     32 H1          36.7910   -43.7560    28.7110 hc         1 GIJ       0.036367
     33 H2          37.1530   -42.6930    30.0700 hc         1 GIJ       0.036367
     34 H3          35.4930   -42.8690    29.5090 hc         1 GIJ       0.036367
     35 H4          36.2110   -41.8200    27.2940 hc         1 GIJ       0.049200
     36 H5          37.8120   -41.6280    27.9400 hc         1 GIJ       0.049200
     37 H6          39.2600   -37.5130    30.2300 h4         1 GIJ       0.156000
     38 H7          43.3400   -42.2500    29.6300 h1         1 GIJ       0.063700
     39 H8          43.0980   -40.7490    30.4710 h1         1 GIJ       0.063700
     40 H9          44.0350   -42.7520    31.8280 h1         1 GIJ       0.058200
     41 H10         42.7590   -41.8100    32.5810 h1         1 GIJ       0.058200
     42 H11         41.0700   -45.0840    30.7940 h1         1 GIJ       0.077700
     43 H12         42.4990   -44.4580    30.0040 h1         1 GIJ       0.077700
     44 H13         39.7880   -43.1350    30.4400 h1         1 GIJ       0.101700
     45 H14         41.0310   -42.2430    25.5470 h1         1 GIJ       0.065700
     46 H15         39.7940   -43.4230    25.9110 h1         1 GIJ       0.065700
     47 H16         41.5340   -44.4160    24.5470 hc         1 GIJ       0.093200
     48 H17         41.4310   -45.2310    26.0960 hc         1 GIJ       0.093200
     49 H18         33.4990   -37.6930    30.4460 hc         1 GIJ       0.057033
     50 H19         34.8300   -36.5420    30.3280 hc         1 GIJ       0.057033
     51 H20         33.8600   -36.9340    28.9090 hc         1 GIJ       0.057033
     52 H21         32.6750   -41.4760    27.1220 hc         1 GIJ       0.058367
     53 H22         34.3280   -41.2650    26.5310 hc         1 GIJ       0.058367
     54 H23         34.0360   -42.1980    27.9900 hc         1 GIJ       0.058367
     55 H24         41.3540   -43.4760    32.5020 hn         1 GIJ       0.419000
     56 H26         41.5160   -42.0120    27.7580 hn         1 GIJ       0.330500
     57 H27         36.9110   -37.6110    30.4210 hn         1 GIJ       0.346000
@<TRIPOS>BOND
     1     1     2 1   
     2     1    32 1   
     3     1    33 1   
     4     1    34 1   
     5     2     3 1   
     6     2    35 1   
     7     2    36 1   
     8     3     4 2   
     9     3    18 1   
    10     4     5 1   
    11     4    28 1   
    12     5     6 2   
    13     5    27 1   
    14     6    31 1   
    15     6    37 1   
    16     7    24 1   
    17     7    27 2   
    18     7    31 1   
    19     8     9 1   
    20     8    24 1   
    21     8    38 1   
    22     8    39 1   
    23     9    25 1   
    24     9    40 1   
    25     9    41 1   
    26    10    11 1   
    27    10    25 1   
    28    10    42 1   
    29    10    43 1   
    30    11    12 1   
    31    11    24 1   
    32    11    44 1   
    33    12    26 1   
    34    12    29 2   
    35    13    14 1   
    36    13    26 1   
    37    13    45 1   
    38    13    46 1   
    39    14    15 1   
    40    14    47 1   
    41    14    48 1   
    42    15    21 1   
    43    15    22 1   
    44    15    23 1   
    45    16    17 1   
    46    16    18 2   
    47    16    28 1   
    48    17    49 1   
    49    17    50 1   
    50    17    51 1   
    51    18    19 1   
    52    19    20 1   
    53    19    30 2   
    54    20    52 1   
    55    20    53 1   
    56    20    54 1   
    57    25    55 1   
    58    26    56 1   
    59    28    57 1   
@<TRIPOS>SUBSTRUCTURE
     1 GIJ         1 TEMP              0 ****  ****    0 ROOT
