@<TRIPOS>MOLECULE
GIK
   51    54     1     0     0
SMALL
No Charge or Current Charge


@<TRIPOS>ATOM
      1 C10         -9.5740    69.2290    34.3590 c6         1 GIK      -0.088900
      2 C13         -4.3130    68.1010    34.8890 ca         1 GIK      -0.242000
      3 C15         -1.9040    68.5300    34.8990 ca         1 GIK      -0.143000
      4 C20         -4.5120    72.7360    34.3350 c3         1 GIK      -0.099400
      5 C21         -3.4780    70.3420    34.6530 ca         1 GIK      -0.257900
      6 C22         -2.7330    66.1410    35.1500 cp         1 GIK       0.010000
      7 C24         -3.1310    63.8380    34.4250 ca         1 GIK       0.333900
      8 C26         -1.7210    64.1980    36.2260 ca         1 GIK       0.344900
      9 C01        -12.6140    66.6940    31.5600 c3         1 GIK      -0.180100
     10 C02        -11.3680    67.5670    31.4930 c          1 GIK       0.602100
     11 C05         -9.5830    68.6470    32.9230 c6         1 GIK       0.105700
     12 C06         -8.3140    67.7820    32.7030 c6         1 GIK      -0.088900
     13 C07         -7.0200    68.5930    32.9710 c6         1 GIK      -0.089400
     14 C08         -7.0140    69.1890    34.4070 c6         1 GIK       0.174300
     15 C09         -8.2840    70.0460    34.6310 c6         1 GIK      -0.089400
     16 C12         -4.5790    69.4830    34.7130 ca         1 GIK       0.231100
     17 C14         -2.9790    67.6060    34.9910 cp         1 GIK       0.026000
     18 C16         -2.2030    69.8860    34.7380 ca         1 GIK      -0.005200
     19 C19         -3.3690    71.7710    34.4820 cc         1 GIK       0.386900
     20 C23         -3.3610    65.2160    34.2820 ca         1 GIK      -0.149000
     21 C27         -1.8910    65.5970    36.1570 ca         1 GIK       0.068000
     22 N04        -10.7950    67.8470    32.7120 ns         1 GIK      -0.508900
     23 N17         -1.3700    70.9760    34.6240 na         1 GIK      -0.059400
     24 N18         -2.0870    72.1700    34.4620 nd         1 GIK      -0.528100
     25 N25         -2.3230    63.3250    35.3790 nb         1 GIK      -0.655000
     26 O03        -10.9140    67.9870    30.4400 o          1 GIK      -0.605100
     27 O11         -5.8510    70.0140    34.6190 os         1 GIK      -0.344100
     28 Cl1         -1.0880    66.6080    37.3650 cl         1 GIK      -0.179000
     29 H1         -10.4530    69.8720    34.5050 hc         1 GIK       0.048950
     30 H2          -9.6560    68.4170    35.0950 hc         1 GIK       0.048950
     31 H3          -5.1260    67.3880    34.9630 ha         1 GIK       0.122000
     32 H4          -0.8710    68.1930    34.9450 ha         1 GIK       0.130000
     33 H5          -4.1530    73.7650    34.2220 hc         1 GIK       0.052033
     34 H6          -5.1140    72.4880    33.4540 hc         1 GIK       0.052033
     35 H7          -5.1630    72.6990    35.2160 hc         1 GIK       0.052033
     36 H8          -3.6070    63.1230    33.7550 h4         1 GIK       0.025100
     37 H9          -1.0850    63.7600    36.9940 h4         1 GIK       0.034100
     38 H10        -13.3430    67.1630    32.2310 hc         1 GIK       0.060033
     39 H11        -13.0430    66.4940    30.5720 hc         1 GIK       0.060033
     40 H12        -12.3720    65.7670    32.0910 hc         1 GIK       0.060033
     41 H13         -9.5810    69.4800    32.2020 h1         1 GIK       0.084700
     42 H14         -8.2970    67.3990    31.6730 hc         1 GIK       0.048950
     43 H15         -8.3410    66.9030    33.3620 hc         1 GIK       0.048950
     44 H16         -6.1480    67.9450    32.8190 hc         1 GIK       0.059700
     45 H17         -6.9340    69.4050    32.2350 hc         1 GIK       0.059700
     46 H18         -7.0230    68.3790    35.1500 h1         1 GIK       0.045700
     47 H19         -8.2960    70.4240    35.6620 hc         1 GIK       0.059700
     48 H20         -8.2580    70.9270    33.9750 hc         1 GIK       0.059700
     49 H21         -4.0190    65.5650    33.4910 ha         1 GIK       0.131000
     50 H22        -11.2530    67.4510    33.5230 hn         1 GIK       0.308500
     51 H23         -0.3520    70.9610    34.6480 hn         1 GIK       0.379000
@<TRIPOS>BOND
     1     1    11 1   
     2     1    15 1   
     3     1    29 1   
     4     1    30 1   
     5     2    16 ar  
     6     2    17 ar  
     7     2    31 1   
     8     3    17 ar  
     9     3    18 ar  
    10     3    32 1   
    11     4    19 1   
    12     4    33 1   
    13     4    34 1   
    14     4    35 1   
    15     5    16 ar  
    16     5    18 ar  
    17     5    19 1   
    18     6    17 1   
    19     6    20 ar  
    20     6    21 ar  
    21     7    20 ar  
    22     7    25 ar  
    23     7    36 1   
    24     8    21 ar  
    25     8    25 ar  
    26     8    37 1   
    27     9    10 1   
    28     9    38 1   
    29     9    39 1   
    30     9    40 1   
    31    10    22 1   
    32    10    26 2   
    33    11    12 1   
    34    11    22 1   
    35    11    41 1   
    36    12    13 1   
    37    12    42 1   
    38    12    43 1   
    39    13    14 1   
    40    13    44 1   
    41    13    45 1   
    42    14    15 1   
    43    14    27 1   
    44    14    46 1   
    45    15    47 1   
    46    15    48 1   
    47    16    27 1   
    48    18    23 1   
    49    19    24 2   
    50    20    49 1   
    51    21    28 1   
    52    22    50 1   
    53    23    24 1   
    54    23    51 1   
@<TRIPOS>SUBSTRUCTURE
     1 GIK         1 TEMP              0 ****  ****    0 ROOT
