@<TRIPOS>MOLECULE
GIK
   51    54     1     0     0
SMALL
abcg2


@<TRIPOS>ATOM
      1 C10         -9.4870    69.0630    34.4340 c6         1 GIK      -0.088900
      2 C13         -4.2980    68.0460    34.8650 ca         1 GIK      -0.242000
      3 C15         -1.9020    68.5230    34.9330 ca         1 GIK      -0.143000
      4 C20         -4.5600    72.7040    34.1960 c3         1 GIK      -0.099400
      5 C21         -3.5650    70.3060    34.6010 ca         1 GIK      -0.257900
      6 C22         -2.6930    66.1900    35.1800 cp         1 GIK       0.010000
      7 C24         -2.9320    63.9210    34.4170 ca         1 GIK       0.333900
      8 C26         -1.7890    64.2820    36.3430 ca         1 GIK       0.344900
      9 C01        -12.6950    66.9770    31.5940 c3         1 GIK      -0.180100
     10 C02        -11.4680    67.8560    31.6230 c          1 GIK       0.602100
     11 C05         -9.5410    68.5640    32.9930 c6         1 GIK       0.105700
     12 C06         -8.2960    67.7360    32.6710 c6         1 GIK      -0.088900
     13 C07         -7.0250    68.5380    32.9250 c6         1 GIK      -0.089400
     14 C08         -6.9820    69.0360    34.3640 c6         1 GIK       0.174300
     15 C09         -8.2150    69.8620    34.6900 c6         1 GIK      -0.089400
     16 C12         -4.6180    69.3770    34.6770 ca         1 GIK       0.231100
     17 C14         -2.9520    67.6340    35.0010 cp         1 GIK       0.026000
     18 C16         -2.2400    69.8650    34.7260 ca         1 GIK      -0.005200
     19 C19         -3.4670    71.7140    34.3950 cc         1 GIK       0.386900
     20 C23         -3.1770    65.2720    34.2500 ca         1 GIK      -0.149000
     21 C27         -1.9860    65.6540    36.2540 ca         1 GIK       0.068000
     22 N04        -10.7600    67.8180    32.7660 ns         1 GIK      -0.508900
     23 N17         -1.4770    70.9700    34.5950 na         1 GIK      -0.059400
     24 N18         -2.2070    72.0740    34.3980 nd         1 GIK      -0.528100
     25 N25         -2.2480    63.4290    35.4430 nb         1 GIK      -0.655000
     26 O03        -11.1600    68.5550    30.6660 o          1 GIK      -0.605100
     27 O11         -5.8540    69.8830    34.5790 os         1 GIK      -0.344100
     28 CL1         -1.3740    66.6470    37.5280 cl         1 GIK      -0.179000
     29 H1         -10.3610    69.6820    34.6470 hc         1 GIK       0.048950
     30 H2          -9.5290    68.2060    35.1160 hc         1 GIK       0.048950
     31 H3          -5.0700    67.2910    34.9320 ha         1 GIK       0.122000
     32 H4          -0.8730    68.2020    35.0140 ha         1 GIK       0.130000
     33 H5          -4.1460    73.6990    34.0400 hc         1 GIK       0.052033
     34 H6          -5.1740    72.4490    33.3320 hc         1 GIK       0.052033
     35 H7          -5.2230    72.7440    35.0610 hc         1 GIK       0.052033
     36 H8          -3.3020    63.2080    33.6900 h4         1 GIK       0.025100
     37 H9          -1.2410    63.8710    37.1840 h4         1 GIK       0.034100
     38 H10        -13.5740    67.5890    31.3920 hc         1 GIK       0.060033
     39 H11        -12.6060    66.2600    30.7770 hc         1 GIK       0.060033
     40 H12        -12.8640    66.4260    32.5180 hc         1 GIK       0.060033
     41 H13         -9.5590    69.4310    32.3300 h1         1 GIK       0.084700
     42 H14         -8.3260    67.4090    31.6300 hc         1 GIK       0.048950
     43 H15         -8.2970    66.8310    33.2880 hc         1 GIK       0.048950
     44 H16         -6.1490    67.9270    32.6970 hc         1 GIK       0.059700
     45 H17         -6.9960    69.4050    32.2570 hc         1 GIK       0.059700
     46 H18         -6.9500    68.1800    35.0500 h1         1 GIK       0.045700
     47 H19         -8.1820    70.1860    35.7330 hc         1 GIK       0.059700
     48 H20         -8.2170    70.7640    34.0700 hc         1 GIK       0.059700
     49 H21         -3.7340    65.6180    33.3890 ha         1 GIK       0.131000
     50 H22        -11.0500    67.1780    33.4890 hn         1 GIK       0.308500
     51 H23         -0.4720    71.0330    34.6290 hn         1 GIK       0.379000
@<TRIPOS>BOND
     1     1    11 1   
     2     1    15 1   
     3     1    29 1   
     4     1    30 1   
     5     2    16 ar  
     6     2    17 ar  
     7     2    31 1   
     8     3    17 ar  
     9     3    18 ar  
    10     3    32 1   
    11     4    19 1   
    12     4    33 1   
    13     4    34 1   
    14     4    35 1   
    15     5    16 ar  
    16     5    18 ar  
    17     5    19 1   
    18     6    17 1   
    19     6    20 ar  
    20     6    21 ar  
    21     7    20 ar  
    22     7    25 ar  
    23     7    36 1   
    24     8    21 ar  
    25     8    25 ar  
    26     8    37 1   
    27     9    10 1   
    28     9    38 1   
    29     9    39 1   
    30     9    40 1   
    31    10    22 1   
    32    10    26 2   
    33    11    12 1   
    34    11    22 1   
    35    11    41 1   
    36    12    13 1   
    37    12    42 1   
    38    12    43 1   
    39    13    14 1   
    40    13    44 1   
    41    13    45 1   
    42    14    15 1   
    43    14    27 1   
    44    14    46 1   
    45    15    47 1   
    46    15    48 1   
    47    16    27 1   
    48    18    23 1   
    49    19    24 2   
    50    20    49 1   
    51    21    28 1   
    52    22    50 1   
    53    23    24 1   
    54    23    51 1   
@<TRIPOS>SUBSTRUCTURE
     1 GIK         1 TEMP              0 ****  ****    0 ROOT
