@<TRIPOS>MOLECULE
GIL
   76    78     1     0     0
SMALL
No Charge or Current Charge


@<TRIPOS>ATOM
      1 C1           8.1440     0.2560    -4.5130 ca         1 GIL      -0.179900
      2 C2           7.0410     1.0410    -4.9280 ca         1 GIL      -0.084000
      3 C3           7.0500     2.4380    -4.7670 ca         1 GIL      -0.116000
      4 C4           8.1560     3.0720    -4.1780 ca         1 GIL      -0.099000
      5 C5           9.2430     2.3050    -3.7350 ca         1 GIL       0.107100
      6 C6           9.2390     0.9060    -3.8940 ca         1 GIL      -0.070000
      7 C7           8.1270    -1.2300    -4.6850 ce         1 GIL       0.642800
      8 N1           7.5340    -1.7110    -5.7910 nv         1 GIL      -1.049200
      9 N2           8.8540    -2.0300    -4.0290 n2         1 GIL      -0.854100
     10 C11         10.6060     2.8140    -1.8140 ca         1 GIL       0.575300
     11 C12         11.9090     3.1110    -1.3660 ca         1 GIL       0.049000
     12 N3           9.6160     2.4330    -0.9850 nb         1 GIL      -0.773000
     13 C13         12.2050     2.9980     0.0110 ca         1 GIL       0.297000
     14 O1          10.3220     2.9340    -3.1570 os         1 GIL      -0.364400
     15 C14         11.1700     2.5670     0.8710 ca         1 GIL       0.115000
     16 C15          9.9000     2.2900     0.3280 ca         1 GIL       0.626300
     17 N4          13.5160     3.2890     0.5100 nh         1 GIL      -0.876400
     18 O2           8.8960     1.8630     1.1730 os         1 GIL      -0.335400
     19 F1          12.8610     3.4990    -2.2580 f          1 GIL      -0.170000
     20 F2          11.3900     2.4060     2.2040 f          1 GIL      -0.148000
     21 C21          7.7790     1.2010     0.7120 ca         1 GIL       0.151100
     22 C22          7.8650    -0.0190     0.0010 ca         1 GIL      -0.150600
     23 C23          6.6810    -0.6130    -0.4910 ca         1 GIL      -0.062000
     24 C24          5.4130    -0.0210    -0.2660 ca         1 GIL      -0.180600
     25 C25          5.3530     1.1800     0.4730 ca         1 GIL      -0.069000
     26 C26          6.5250     1.7820     0.9560 ca         1 GIL      -0.149000
     27 C29          9.1860    -0.6990    -0.2590 c          1 GIL       0.716600
     28 O3           9.3630    -1.1970    -1.3610 o          1 GIL      -0.710500
     29 O4           9.9940    -0.7850     0.6550 o          1 GIL      -0.710500
     30 C8           4.1300    -0.6310    -0.7980 c          1 GIL       0.623700
     31 C10         14.5770     2.2510     0.5510 c3         1 GIL       0.264500
     32 C16         13.8660     4.6440     1.0030 c3         1 GIL       0.264500
     33 C17         15.5810     2.4080    -0.6090 c3         1 GIL      -0.110350
     34 C18         14.0380     0.8050     0.6190 c3         1 GIL      -0.110350
     35 C19         13.1760     4.9850     2.3380 c3         1 GIL      -0.110350
     36 C20         13.6240     5.7450    -0.0490 c3         1 GIL      -0.110350
     37 O5           3.0350    -0.1230    -0.5940 o          1 GIL      -0.638100
     38 N5           4.2540    -1.7930    -1.5280 ns         1 GIL      -0.501900
     39 C9           3.1520    -2.4820    -2.2030 c3         1 GIL       0.110000
     40 C27          2.7130    -1.7840    -3.5160 c3         1 GIL      -0.087700
     41 C28          3.8750    -1.6470    -4.5300 c3         1 GIL      -0.087100
     42 C30          1.5020    -2.5040    -4.1490 c3         1 GIL      -0.087100
     43 H2           6.1690     0.5720    -5.3790 ha         1 GIL       0.123000
     44 H3           6.1990     3.0280    -5.0980 ha         1 GIL       0.108000
     45 H4           8.1660     4.1520    -4.0550 ha         1 GIL       0.116000
     46 H6          10.1000     0.3370    -3.5550 ha         1 GIL       0.151000
     47 H1N1         7.8700    -2.6260    -6.0630 hn         1 GIL       0.455000
     48 H1N2         7.3990    -1.0450    -6.5410 hn         1 GIL       0.455000
     49 H23          6.7700    -1.5440    -1.0450 ha         1 GIL       0.133000
     50 H25          4.3960     1.6600     0.6670 ha         1 GIL       0.114000
     51 H26          6.4580     2.7150     1.5100 ha         1 GIL       0.110000
     52 H10         15.1440     2.3970     1.4800 h1         1 GIL       0.035200
     53 H16         14.9450     4.6630     1.2100 h1         1 GIL       0.035200
     54 H171        16.4090     1.6970    -0.4980 hc         1 GIL       0.040200
     55 H172        15.0970     2.2200    -1.5740 hc         1 GIL       0.040200
     56 H173        16.0050     3.4180    -0.6260 hc         1 GIL       0.040200
     57 H181        13.3840     0.6740     1.4880 hc         1 GIL       0.040200
     58 H182        14.8660     0.0930     0.7160 hc         1 GIL       0.040200
     59 H183        13.4750     0.5470    -0.2860 hc         1 GIL       0.040200
     60 H191        13.5460     5.9410     2.7270 hc         1 GIL       0.040200
     61 H192        12.0900     5.0660     2.2110 hc         1 GIL       0.040200
     62 H193        13.3850     4.2120     3.0860 hc         1 GIL       0.040200
     63 H201        14.1770     5.5240    -0.9690 hc         1 GIL       0.040200
     64 H202        13.9680     6.7160     0.3260 hc         1 GIL       0.040200
     65 H203        12.5590     5.8320    -0.2940 hc         1 GIL       0.040200
     66 H5           5.1890    -2.1560    -1.6510 hn         1 GIL       0.325500
     67 H9C1         2.2980    -2.5420    -1.5140 h1         1 GIL       0.042700
     68 H9C2         3.4720    -3.5080    -2.4260 h1         1 GIL       0.042700
     69 H27          2.3840    -0.7690    -3.2570 hc         1 GIL       0.072700
     70 H281         4.2680    -2.6320    -4.8080 hc         1 GIL       0.031033
     71 H282         3.5350    -1.1430    -5.4430 hc         1 GIL       0.031033
     72 H283         4.6970    -1.0550    -4.1100 hc         1 GIL       0.031033
     73 H301         1.7640    -3.5300    -4.4360 hc         1 GIL       0.031033
     74 H302         1.1590    -1.9730    -5.0450 hc         1 GIL       0.031033
     75 H303         0.6650    -2.5490    -3.4410 hc         1 GIL       0.031033
     76 HN1          9.0600    -1.5970    -3.1040 hn         1 GIL       0.463400
@<TRIPOS>BOND
     1     1     2 ar  
     2     1     6 ar  
     3     1     7 1   
     4     2     3 ar  
     5     2    43 1   
     6     3     4 ar  
     7     3    44 1   
     8     4     5 ar  
     9     4    45 1   
    10     5     6 ar  
    11     5    14 1   
    12     6    46 1   
    13     7     8 1   
    14     7     9 2   
    15     8    47 1   
    16     8    48 1   
    17     9    76 1   
    18    10    11 ar  
    19    10    12 ar  
    20    10    14 1   
    21    11    13 ar  
    22    11    19 1   
    23    12    16 ar  
    24    13    15 ar  
    25    13    17 1   
    26    15    16 ar  
    27    15    20 1   
    28    16    18 1   
    29    17    31 1   
    30    17    32 1   
    31    18    21 1   
    32    21    22 ar  
    33    21    26 ar  
    34    22    23 ar  
    35    22    27 1   
    36    23    24 ar  
    37    23    49 1   
    38    24    25 ar  
    39    24    30 1   
    40    25    26 ar  
    41    25    50 1   
    42    26    51 1   
    43    27    28 1   
    44    27    29 1   
    45    30    37 2   
    46    30    38 1   
    47    31    33 1   
    48    31    34 1   
    49    31    52 1   
    50    32    35 1   
    51    32    36 1   
    52    32    53 1   
    53    33    54 1   
    54    33    55 1   
    55    33    56 1   
    56    34    57 1   
    57    34    58 1   
    58    34    59 1   
    59    35    60 1   
    60    35    61 1   
    61    35    62 1   
    62    36    63 1   
    63    36    64 1   
    64    36    65 1   
    65    38    39 1   
    66    38    66 1   
    67    39    40 1   
    68    39    67 1   
    69    39    68 1   
    70    40    41 1   
    71    40    42 1   
    72    40    69 1   
    73    41    70 1   
    74    41    71 1   
    75    41    72 1   
    76    42    73 1   
    77    42    74 1   
    78    42    75 1   
@<TRIPOS>SUBSTRUCTURE
     1 GIL         1 TEMP              0 ****  ****    0 ROOT
