@<TRIPOS>MOLECULE
GIL
   76    78     1     0     0
SMALL
bcc


@<TRIPOS>ATOM
      1 C1           7.5610     0.9070    -4.1740 ca         1 GIL      -0.179900
      2 C2           6.5410     1.8510    -4.2760 ca         1 GIL      -0.102000
      3 C3           6.7830     3.1780    -3.9590 ca         1 GIL      -0.134000
      4 C4           8.0400     3.5820    -3.5330 ca         1 GIL      -0.117000
      5 C5           9.0430     2.6360    -3.4210 ca         1 GIL       0.107100
      6 C6           8.8180     1.3080    -3.7320 ca         1 GIL      -0.088000
      7 C7           7.3310    -0.5220    -4.5350 ce         1 GIL       0.642800
      8 N1           6.4300    -0.7110    -5.5430 nv         1 GIL      -0.938800
      9 N2           7.8850    -1.5190    -3.9640 n2         1 GIL      -0.854100
     10 C11         10.5850     2.8770    -1.7050 ca         1 GIL       0.640600
     11 C12         11.8800     3.0910    -1.2640 ca         1 GIL      -0.051400
     12 N3           9.6290     2.5320    -0.8850 nb         1 GIL      -0.773000
     13 C13         12.1940     2.9270     0.0870 ca         1 GIL       0.158600
     14 O1          10.3040     3.0340    -3.0170 os         1 GIL      -0.364400
     15 C14         11.1410     2.5390     0.9140 ca         1 GIL       0.014600
     16 C15          9.8780     2.3380     0.3850 ca         1 GIL       0.691600
     17 N4          13.4790     3.0810     0.6110 nh         1 GIL      -0.738000
     18 O2           8.8680     1.9570     1.1880 os         1 GIL      -0.335400
     19 F1          12.8160     3.4400    -2.1510 f          1 GIL      -0.134900
     20 F2          11.3480     2.3190     2.2120 f          1 GIL      -0.112900
     21 C21          7.8080     1.3390     0.5640 ca         1 GIL       0.151100
     22 C22          7.9630     0.1600    -0.1670 ca         1 GIL      -0.150600
     23 C23          6.8330    -0.3430    -0.8010 ca         1 GIL      -0.080000
     24 C24          5.5920     0.2780    -0.7170 ca         1 GIL      -0.180600
     25 C25          5.4730     1.4460     0.0280 ca         1 GIL      -0.087000
     26 C26          6.5800     1.9720     0.6690 ca         1 GIL      -0.167000
     27 C29          9.2880    -0.5870    -0.2980 c          1 GIL       0.927200
     28 O3           9.4060    -1.3330    -1.2920 o          1 GIL      -0.815800
     29 O4          10.1250    -0.4160     0.6020 o          1 GIL      -0.815800
     30 C8           4.3920    -0.2240    -1.4510 c          1 GIL       0.690700
     31 C10         14.4550     2.0020     0.4660 c3         1 GIL       0.264500
     32 C16         13.9370     4.4110     0.9990 c3         1 GIL       0.264500
     33 C17         15.2840     2.0400    -0.8200 c3         1 GIL      -0.110350
     34 C18         13.8070     0.6350     0.6490 c3         1 GIL      -0.110350
     35 C19         13.1000     4.9930     2.1350 c3         1 GIL      -0.110350
     36 C20         14.0360     5.4210    -0.1440 c3         1 GIL      -0.110350
     37 O5           3.5210     0.5480    -1.8330 o          1 GIL      -0.638100
     38 N5           4.3230    -1.5530    -1.6350 ns         1 GIL      -0.568900
     39 C9           3.2520    -2.2030    -2.3560 c3         1 GIL       0.110000
     40 C27          3.5620    -2.4780    -3.8290 c3         1 GIL      -0.087700
     41 C28          4.7290    -3.4440    -3.9830 c3         1 GIL      -0.087100
     42 C30          2.3090    -3.0230    -4.5070 c3         1 GIL      -0.087100
     43 H2           5.5510     1.5450    -4.5860 ha         1 GIL       0.141000
     44 H3           5.9850     3.9050    -4.0340 ha         1 GIL       0.126000
     45 H4           8.2350     4.6170    -3.2830 ha         1 GIL       0.134000
     46 H6           9.6240     0.5910    -3.6430 ha         1 GIL       0.169000
     47 H1N1         6.3370    -1.6550    -5.8810 hn         1 GIL       0.399800
     48 H1N2         6.3420    -0.0030    -6.2520 hn         1 GIL       0.399800
     49 H23          6.9530    -1.2280    -1.4120 ha         1 GIL       0.151000
     50 H25          4.5210     1.9550     0.0990 ha         1 GIL       0.132000
     51 H26          6.5000     2.8920     1.2340 ha         1 GIL       0.128000
     52 H10         15.1520     2.1390     1.2990 h1         1 GIL       0.035200
     53 H16         14.9470     4.2530     1.3870 h1         1 GIL       0.035200
     54 H171        16.1030     1.3220    -0.7500 hc         1 GIL       0.040200
     55 H172        14.6930     1.7800    -1.6970 hc         1 GIL       0.040200
     56 H173        15.7240     3.0240    -0.9850 hc         1 GIL       0.040200
     57 H181        13.3210     0.5520     1.6190 hc         1 GIL       0.040200
     58 H182        14.5700    -0.1410     0.5860 hc         1 GIL       0.040200
     59 H183        13.0590     0.4230    -0.1180 hc         1 GIL       0.040200
     60 H191        13.5250     5.9430     2.4620 hc         1 GIL       0.040200
     61 H192        12.0750     5.1910     1.8150 hc         1 GIL       0.040200
     62 H193        13.0700     4.3210     2.9910 hc         1 GIL       0.040200
     63 H201        14.6470     5.0480    -0.9640 hc         1 GIL       0.040200
     64 H202        14.4900     6.3450     0.2170 hc         1 GIL       0.040200
     65 H203        13.0500     5.6800    -0.5370 hc         1 GIL       0.040200
     66 H5           5.0320    -2.1360    -1.2240 hn         1 GIL       0.325500
     67 H9C1         2.3590    -1.5830    -2.2740 h1         1 GIL       0.042700
     68 H9C2         3.0320    -3.1470    -1.8510 h1         1 GIL       0.042700
     69 H27          3.8350    -1.5270    -4.2990 hc         1 GIL       0.072700
     70 H281         4.5080    -4.3990    -3.4980 hc         1 GIL       0.031033
     71 H282         4.9290    -3.6510    -5.0360 hc         1 GIL       0.031033
     72 H283         5.6500    -3.0440    -3.5580 hc         1 GIL       0.031033
     73 H301         1.9890    -3.9570    -4.0380 hc         1 GIL       0.031033
     74 H302         2.4890    -3.2310    -5.5630 hc         1 GIL       0.031033
     75 H303         1.4780    -2.3180    -4.4470 hc         1 GIL       0.031033
     76 HN1          8.4250    -1.2450    -3.1460 hn         1 GIL       0.463400
@<TRIPOS>BOND
     1     1     2 ar  
     2     1     6 ar  
     3     1     7 1   
     4     2     3 ar  
     5     2    43 1   
     6     3     4 ar  
     7     3    44 1   
     8     4     5 ar  
     9     4    45 1   
    10     5     6 ar  
    11     5    14 1   
    12     6    46 1   
    13     7     8 1   
    14     7     9 2   
    15     8    47 1   
    16     8    48 1   
    17     9    76 1   
    18    10    11 ar  
    19    10    12 ar  
    20    10    14 1   
    21    11    13 ar  
    22    11    19 1   
    23    12    16 ar  
    24    13    15 ar  
    25    13    17 1   
    26    15    16 ar  
    27    15    20 1   
    28    16    18 1   
    29    17    31 1   
    30    17    32 1   
    31    18    21 1   
    32    21    22 ar  
    33    21    26 ar  
    34    22    23 ar  
    35    22    27 1   
    36    23    24 ar  
    37    23    49 1   
    38    24    25 ar  
    39    24    30 1   
    40    25    26 ar  
    41    25    50 1   
    42    26    51 1   
    43    27    28 1   
    44    27    29 1   
    45    30    37 2   
    46    30    38 1   
    47    31    33 1   
    48    31    34 1   
    49    31    52 1   
    50    32    35 1   
    51    32    36 1   
    52    32    53 1   
    53    33    54 1   
    54    33    55 1   
    55    33    56 1   
    56    34    57 1   
    57    34    58 1   
    58    34    59 1   
    59    35    60 1   
    60    35    61 1   
    61    35    62 1   
    62    36    63 1   
    63    36    64 1   
    64    36    65 1   
    65    38    39 1   
    66    38    66 1   
    67    39    40 1   
    68    39    67 1   
    69    39    68 1   
    70    40    41 1   
    71    40    42 1   
    72    40    69 1   
    73    41    70 1   
    74    41    71 1   
    75    41    72 1   
    76    42    73 1   
    77    42    74 1   
    78    42    75 1   
@<TRIPOS>SUBSTRUCTURE
     1 GIL         1 TEMP              0 ****  ****    0 ROOT
