@<TRIPOS>MOLECULE
GIM
   27    28     1     0     0
SMALL
abcg2


@<TRIPOS>ATOM
      1 C1           0.0290    -1.3150     0.1800 cc         1 GIM      -0.063600
      2 C2          -1.3870    -0.9580     0.4770 c6         1 GIM       0.199600
      3 N10          0.9840    -0.4480    -0.1340 na         1 GIM       0.015300
      4 C3          -1.6810     0.3580    -0.2420 c6         1 GIM       0.120300
      5 C4          -0.6350     1.3920     0.1710 c6         1 GIM       0.165300
      6 C5           0.7860     1.0020    -0.2580 c6         1 GIM       0.063300
      7 C6           1.8090     1.7700     0.5670 c3         1 GIM       0.154600
      8 C7           1.8710    -2.4520    -0.2090 cc         1 GIM      -0.157000
      9 C8           2.1490    -1.1410    -0.3850 cd         1 GIM      -0.130000
     10 N1           0.5510    -2.5290     0.1410 na         1 GIM      -0.054000
     11 O3          -2.9340     0.8580     0.1320 oh         1 GIM      -0.643000
     12 O2          -2.2080    -2.0040     0.0480 oh         1 GIM      -0.704000
     13 O4          -0.8760     2.6340    -0.4280 oh         1 GIM      -0.694000
     14 O6           3.0730     1.6610    -0.0370 oh         1 GIM      -0.668000
     15 H2          -1.4790    -0.7910     1.5580 h1         1 GIM       0.092700
     16 H3          -1.6170     0.1940    -1.3270 h1         1 GIM       0.080700
     17 H4          -0.6600     1.4740     1.2700 h1         1 GIM       0.057700
     18 H5           0.9030     1.2460    -1.3170 h1         1 GIM       0.131700
     19 H6C1         1.8020     1.3770     1.5900 h1         1 GIM       0.060700
     20 H6C2         1.4770     2.8130     0.6150 h1         1 GIM       0.060700
     21 H7           2.4930    -3.3230    -0.3110 h4         1 GIM       0.211000
     22 H8           3.0620    -0.6540    -0.6720 h4         1 GIM       0.225000
     23 H1           0.0360    -3.3790     0.3270 hn         1 GIM       0.413000
     24 HB          -3.6110     0.4550    -0.4200 ho         1 GIM       0.482000
     25 HA          -2.8160    -2.2360     0.7560 ho         1 GIM       0.548000
     26 HC          -1.6980     2.9870    -0.0700 ho         1 GIM       0.551000
     27 H6           3.7430     1.8970     0.6110 ho         1 GIM       0.478000
@<TRIPOS>BOND
     1     1     2 1   
     2     1     3 2   
     3     1    10 1   
     4     2     4 1   
     5     2    12 1   
     6     2    15 1   
     7     3     6 1   
     8     3     9 1   
     9     4     5 1   
    10     4    11 1   
    11     4    16 1   
    12     5     6 1   
    13     5    13 1   
    14     5    17 1   
    15     6     7 1   
    16     6    18 1   
    17     7    14 1   
    18     7    19 1   
    19     7    20 1   
    20     8     9 2   
    21     8    10 1   
    22     8    21 1   
    23     9    22 1   
    24    10    23 1   
    25    11    24 1   
    26    12    25 1   
    27    13    26 1   
    28    14    27 1   
@<TRIPOS>SUBSTRUCTURE
     1 GIM         1 TEMP              0 ****  ****    0 ROOT
