@<TRIPOS>MOLECULE
GIM
   27    28     1     0     0
SMALL
No Charge or Current Charge


@<TRIPOS>ATOM
      1 C1          -0.0590    -1.3510     0.1840 cc         1 GIM      -0.063600
      2 C2          -1.4900    -0.9320     0.4250 c6         1 GIM       0.199600
      3 N10          0.9830    -0.4990    -0.0750 na         1 GIM       0.015300
      4 C3          -1.6960     0.4600    -0.2440 c6         1 GIM       0.120300
      5 C4          -0.5870     1.4440     0.2380 c6         1 GIM       0.165300
      6 C5           0.8450     0.9840    -0.2090 c6         1 GIM       0.063300
      7 C6           1.9360     1.8070     0.5500 c3         1 GIM       0.154600
      8 C7           1.8390    -2.5360    -0.1670 cc         1 GIM      -0.157000
      9 C8           2.1490    -1.1960    -0.3100 cd         1 GIM      -0.130000
     10 N1           0.4740    -2.6300     0.1340 na         1 GIM      -0.054000
     11 O3          -3.0020     0.9910     0.0600 oh         1 GIM      -0.643000
     12 O2          -2.4190    -1.8870    -0.1210 oh         1 GIM      -0.704000
     13 O4          -0.8880     2.7540    -0.2660 oh         1 GIM      -0.694000
     14 O6           3.2320     1.7280    -0.0720 oh         1 GIM      -0.668000
     15 H2          -1.6490    -0.8140     1.5100 h1         1 GIM       0.092700
     16 H3          -1.5890     0.3300    -1.3320 h1         1 GIM       0.080700
     17 H4          -0.6130     1.4570     1.3390 h1         1 GIM       0.057700
     18 H5           0.9460     1.2200    -1.2760 h1         1 GIM       0.131700
     19 H6C1         1.9820     1.4500     1.5880 h1         1 GIM       0.060700
     20 H6C2         1.6150     2.8570     0.5840 h1         1 GIM       0.060700
     21 H7           2.4690    -3.4140    -0.2700 h4         1 GIM       0.211000
     22 H8           3.0910    -0.7210    -0.5650 h4         1 GIM       0.225000
     23 H1          -0.0460    -3.4930     0.2680 hn         1 GIM       0.413000
     24 HB          -3.6420     0.2680    -0.1420 ho         1 GIM       0.482000
     25 HA          -2.6750    -2.5020     0.6080 ho         1 GIM       0.548000
     26 HC          -1.8780     2.7990    -0.2450 ho         1 GIM       0.551000
     27 H6           3.8370     2.3160     0.4370 ho         1 GIM       0.478000
@<TRIPOS>BOND
     1     1     2 1   
     2     1     3 2   
     3     1    10 1   
     4     2     4 1   
     5     2    12 1   
     6     2    15 1   
     7     3     6 1   
     8     3     9 1   
     9     4     5 1   
    10     4    11 1   
    11     4    16 1   
    12     5     6 1   
    13     5    13 1   
    14     5    17 1   
    15     6     7 1   
    16     6    18 1   
    17     7    14 1   
    18     7    19 1   
    19     7    20 1   
    20     8     9 2   
    21     8    10 1   
    22     8    21 1   
    23     9    22 1   
    24    10    23 1   
    25    11    24 1   
    26    12    25 1   
    27    13    26 1   
    28    14    27 1   
@<TRIPOS>SUBSTRUCTURE
     1 GIM         1 TEMP              0 ****  ****    0 ROOT
