@<TRIPOS>MOLECULE
GIN
   53    55     1     0     0
SMALL
bcc


@<TRIPOS>ATOM
      1 C12          4.9220    -3.3370    -3.5810 c          1 GIN       0.703700
      2 C16          4.6380    -3.7830    -1.1750 ca         1 GIN       0.060600
      3 C19          5.4260    -4.1560     1.5120 ca         1 GIN      -0.040300
      4 C20          6.2200    -4.5660     0.4430 ca         1 GIN      -0.120000
      5 C21          5.8510    -4.3970    -0.8790 ca         1 GIN      -0.103000
      6 C24          5.9700    -4.3670     2.9020 c3         1 GIN      -0.039100
      7 C30          6.9830    -3.2920     3.3030 c3         1 GIN      -0.073400
      8 C31          7.5650    -3.5500     4.6850 c3         1 GIN      -0.090100
      9 C32          6.2540    -0.7580    -6.7930 c3         1 GIN       0.286000
     10 C33          7.3370     0.1190    -6.2450 cc         1 GIN      -0.223200
     11 C34          7.0690     1.0730    -5.2250 cc         1 GIN      -0.024000
     12 C35          8.0460     1.8700    -4.7210 cd         1 GIN      -0.266200
     13 C01          4.1660    -3.2290    -4.8530 ca         1 GIN      -0.248600
     14 C02          3.0140    -3.9940    -5.0450 ca         1 GIN      -0.057000
     15 C03          2.2820    -3.9360    -6.2160 ca         1 GIN      -0.196000
     16 C04          2.7160    -3.0880    -7.2270 ca         1 GIN      -0.052000
     17 C05          3.8600    -2.3280    -7.0760 ca         1 GIN      -0.230000
     18 C06          4.6230    -2.3790    -5.8960 ca         1 GIN       0.249600
     19 N11          5.7340    -1.6040    -5.7440 nu         1 GIN      -0.768600
     20 N13          4.1670    -3.6050    -2.4810 ns         1 GIN      -0.473100
     21 O14          6.1360    -3.1910    -3.5170 o          1 GIN      -0.611100
     22 C17          3.8230    -3.3680    -0.1280 ca         1 GIN      -0.134000
     23 C18          4.2060    -3.5500     1.1960 ca         1 GIN      -0.166300
     24 C23          3.2650    -3.0990     2.2750 c3         1 GIN       0.720200
     25 F27          2.1910    -2.4680     1.7900 f          1 GIN      -0.235967
     26 F28          2.8030    -4.1300     3.0000 f          1 GIN      -0.235967
     27 F29          3.8430    -2.2510     3.1370 f          1 GIN      -0.235967
     28 C36          9.4040     1.7870    -5.1950 c          1 GIN       0.693700
     29 N37          9.5850     0.8370    -6.1810 ns         1 GIN      -0.431100
     30 C38          8.6170     0.0370    -6.6850 cd         1 GIN       0.036600
     31 O41         10.3450     2.4690    -4.8000 o          1 GIN      -0.629500
     32 H20          7.1630    -5.0540     0.6590 ha         1 GIN       0.139000
     33 H21          6.5000    -4.7610    -1.6600 ha         1 GIN       0.160000
     34 H241         5.1850    -4.4320     3.6550 hc         1 GIN       0.054200
     35 H242         6.4730    -5.3380     2.9210 hc         1 GIN       0.054200
     36 H301         7.7870    -3.2640     2.5630 hc         1 GIN       0.046200
     37 H302         6.5090    -2.3080     3.2780 hc         1 GIN       0.046200
     38 H311         6.7880    -3.5350     5.4510 hc         1 GIN       0.033700
     39 H312         8.0560    -4.5240     4.7300 hc         1 GIN       0.033700
     40 H313         8.3050    -2.7940     4.9500 hc         1 GIN       0.033700
     41 H321         6.6390    -1.3340    -7.6440 h1         1 GIN       0.042700
     42 H322         5.4460    -0.1320    -7.1820 h1         1 GIN       0.042700
     43 H34          6.0580     1.1650    -4.8450 ha         1 GIN       0.144000
     44 H35          7.8300     2.5950    -3.9480 ha         1 GIN       0.161000
     45 H02          2.6920    -4.6750    -4.2660 ha         1 GIN       0.128000
     46 H03          1.3990    -4.5470    -6.3410 ha         1 GIN       0.138000
     47 H04          2.1650    -3.0270    -8.1570 ha         1 GIN       0.131000
     48 H05          4.1760    -1.6980    -7.8960 ha         1 GIN       0.134000
     49 HN11         6.4020    -1.9310    -5.0640 hn         1 GIN       0.462800
     50 HN13         3.1690    -3.4970    -2.5740 hn         1 GIN       0.325500
     51 H17          2.8790    -2.8970    -0.3670 ha         1 GIN       0.147000
     52 HN37        10.5210     0.7400    -6.5500 hn         1 GIN       0.327500
     53 H38          8.9330    -0.6550    -7.4530 h4         1 GIN       0.149000
@<TRIPOS>BOND
     1     1    13 1   
     2     1    20 1   
     3     1    21 2   
     4     2     5 ar  
     5     2    20 1   
     6     2    22 ar  
     7     3     4 ar  
     8     3     6 1   
     9     3    23 ar  
    10     4     5 ar  
    11     4    32 1   
    12     5    33 1   
    13     6     7 1   
    14     6    34 1   
    15     6    35 1   
    16     7     8 1   
    17     7    36 1   
    18     7    37 1   
    19     8    38 1   
    20     8    39 1   
    21     8    40 1   
    22     9    10 1   
    23     9    19 1   
    24     9    41 1   
    25     9    42 1   
    26    10    11 1   
    27    10    30 2   
    28    11    12 2   
    29    11    43 1   
    30    12    28 1   
    31    12    44 1   
    32    13    14 ar  
    33    13    18 ar  
    34    14    15 ar  
    35    14    45 1   
    36    15    16 ar  
    37    15    46 1   
    38    16    17 ar  
    39    16    47 1   
    40    17    18 ar  
    41    17    48 1   
    42    18    19 1   
    43    19    49 1   
    44    20    50 1   
    45    22    23 ar  
    46    22    51 1   
    47    23    24 1   
    48    24    25 1   
    49    24    26 1   
    50    24    27 1   
    51    28    29 1   
    52    28    31 2   
    53    29    30 1   
    54    29    52 1   
    55    30    53 1   
@<TRIPOS>SUBSTRUCTURE
     1 GIN         1 TEMP              0 ****  ****    0 ROOT
