@<TRIPOS>MOLECULE
GIN
   53    55     1     0     0
SMALL
No Charge or Current Charge


@<TRIPOS>ATOM
      1 C12          4.9710    -2.8670    -3.6010 c          1 GIN       0.636700
      2 C16          4.8630    -3.5700    -1.1220 ca         1 GIN      -0.032000
      3 C19          5.6810    -4.0320     1.5580 ca         1 GIN      -0.040300
      4 C20          6.6090    -3.6480     0.5720 ca         1 GIN      -0.102000
      5 C21          6.2130    -3.4190    -0.7530 ca         1 GIN      -0.085000
      6 C24          6.2210    -4.2560     2.9750 c3         1 GIN      -0.039100
      7 C30          6.4100    -2.9310     3.7460 c3         1 GIN      -0.073400
      8 C31          6.9300    -3.1350     5.1820 c3         1 GIN      -0.090100
      9 C32          6.0340    -0.3930    -6.9000 c3         1 GIN       0.286000
     10 C33          7.4120     0.0600    -6.5080 cc         1 GIN      -0.223200
     11 C34          7.5650     0.8720    -5.3260 cc         1 GIN      -0.074000
     12 C35          8.8220     1.2970    -4.9480 cd         1 GIN      -0.316200
     13 C01          4.0860    -2.8550    -4.8410 ca         1 GIN      -0.248600
     14 C02          2.8070    -3.4750    -4.8150 ca         1 GIN      -0.039000
     15 C03          1.9790    -3.4720    -5.9470 ca         1 GIN      -0.178000
     16 C04          2.4030    -2.8590    -7.1310 ca         1 GIN      -0.034000
     17 C05          3.6610    -2.2450    -7.1760 ca         1 GIN      -0.212000
     18 C06          4.5000    -2.2350    -6.0480 ca         1 GIN       0.388000
     19 N11          5.7360    -1.6080    -6.1500 nu         1 GIN      -0.962200
     20 N13          4.3780    -3.3650    -2.4460 ns         1 GIN      -0.147000
     21 O14          6.1310    -2.4660    -3.6190 o          1 GIN      -0.611100
     22 C17          3.9310    -3.9580    -0.1430 ca         1 GIN      -0.116000
     23 C18          4.3100    -4.1890     1.2030 ca         1 GIN      -0.166300
     24 C23          3.2370    -4.6130     2.2300 c3         1 GIN       0.356300
     25 F27          1.9790    -4.5680     1.7320 f          1 GIN      -0.114667
     26 F28          3.4290    -5.8810     2.6580 f          1 GIN      -0.114667
     27 F29          3.2310    -3.8170     3.3240 f          1 GIN      -0.114667
     28 C36         10.0350     0.9540    -5.7060 c          1 GIN       0.551200
     29 N37          9.7900     0.1790    -6.8120 ns         1 GIN      -0.364100
     30 C38          8.5460    -0.2710    -7.2280 cd         1 GIN      -0.013400
     31 O41         11.1580     1.3160    -5.3950 o          1 GIN      -0.554000
     32 H20          7.6580    -3.5270     0.8350 ha         1 GIN       0.121000
     33 H21          6.9730    -3.1350    -1.4730 ha         1 GIN       0.142000
     34 H241         5.5840    -4.9280     3.5580 hc         1 GIN       0.054200
     35 H242         7.1910    -4.7660     2.9170 hc         1 GIN       0.054200
     36 H301         7.1130    -2.2900     3.2000 hc         1 GIN       0.046200
     37 H302         5.4560    -2.3910     3.7860 hc         1 GIN       0.046200
     38 H311         6.2270    -3.7410     5.7670 hc         1 GIN       0.033700
     39 H312         7.9020    -3.6420     5.1750 hc         1 GIN       0.033700
     40 H313         7.0510    -2.1690     5.6860 hc         1 GIN       0.033700
     41 H321         5.9920    -0.5820    -7.9820 h1         1 GIN       0.042700
     42 H322         5.3040     0.3940    -6.6610 h1         1 GIN       0.042700
     43 H34          6.6850     1.1400    -4.7420 ha         1 GIN       0.194000
     44 H35          8.9880     1.9080    -4.0680 ha         1 GIN       0.211000
     45 H02          2.4330    -3.9760    -3.9260 ha         1 GIN       0.110000
     46 H03          1.0050    -3.9540    -5.9070 ha         1 GIN       0.120000
     47 H04          1.7610    -2.8620    -8.0100 ha         1 GIN       0.113000
     48 H05          3.9830    -1.7800    -8.1020 ha         1 GIN       0.116000
     49 HN11         6.2990    -1.7300    -5.3010 hn         1 GIN       0.518000
     50 HN13         3.4110    -3.6310    -2.5640 hn         1 GIN       0.159000
     51 H17          2.8930    -4.0790    -0.4450 ha         1 GIN       0.129000
     52 HN37        10.6190    -0.0650    -7.3410 hn         1 GIN       0.327500
     53 H38          8.5520    -0.8810    -8.1290 h4         1 GIN       0.199000
@<TRIPOS>BOND
     1     1    13 1   
     2     1    20 1   
     3     1    21 2   
     4     2     5 ar  
     5     2    20 1   
     6     2    22 ar  
     7     3     4 ar  
     8     3     6 1   
     9     3    23 ar  
    10     4     5 ar  
    11     4    32 1   
    12     5    33 1   
    13     6     7 1   
    14     6    34 1   
    15     6    35 1   
    16     7     8 1   
    17     7    36 1   
    18     7    37 1   
    19     8    38 1   
    20     8    39 1   
    21     8    40 1   
    22     9    10 1   
    23     9    19 1   
    24     9    41 1   
    25     9    42 1   
    26    10    11 1   
    27    10    30 2   
    28    11    12 2   
    29    11    43 1   
    30    12    28 1   
    31    12    44 1   
    32    13    14 ar  
    33    13    18 ar  
    34    14    15 ar  
    35    14    45 1   
    36    15    16 ar  
    37    15    46 1   
    38    16    17 ar  
    39    16    47 1   
    40    17    18 ar  
    41    17    48 1   
    42    18    19 1   
    43    19    49 1   
    44    20    50 1   
    45    22    23 ar  
    46    22    51 1   
    47    23    24 1   
    48    24    25 1   
    49    24    26 1   
    50    24    27 1   
    51    28    29 1   
    52    28    31 2   
    53    29    30 1   
    54    29    52 1   
    55    30    53 1   
@<TRIPOS>SUBSTRUCTURE
     1 GIN         1 TEMP              0 ****  ****    0 ROOT
