@<TRIPOS>MOLECULE
GIO
   21    22     1     0     0
SMALL
abcg2


@<TRIPOS>ATOM
      1 OP           2.7730     0.2860     0.0000 o          1 GIO      -0.547000
      2 CP           1.6400     0.0190     0.3670 c          1 GIO       0.562000
      3 CAP          0.5770    -0.4550    -0.6010 c5         1 GIO       0.025700
      4 CBP          0.6910     0.1070    -2.0110 c5         1 GIO      -0.073400
      5 CGP         -0.7360    -0.0350    -2.5360 c5         1 GIO      -0.099400
      6 CDP         -1.6140     0.2890    -1.3280 c5         1 GIO       0.103000
      7 NP          -0.7610    -0.0440    -0.1930 n          1 GIO      -0.410800
      8 C           -1.1630     0.0120     1.0770 c          1 GIO       0.560000
      9 O           -2.3020     0.2980     1.4180 o          1 GIO      -0.552000
     10 CA          -0.0840    -0.3300     2.0840 c6         1 GIO       0.020000
     11 N            1.2250     0.0940     1.6380 ns         1 GIO      -0.503900
     12 HAP          0.6400    -1.5530    -0.6350 h1         1 GIO       0.070700
     13 HBP1         0.9870     1.1570    -1.9760 hc         1 GIO       0.069700
     14 HBP2         1.4210    -0.4320    -2.6110 hc         1 GIO       0.069700
     15 HGP1        -0.9420     0.6250    -3.3770 hc         1 GIO       0.056700
     16 HGP2        -0.9140    -1.0600    -2.8660 hc         1 GIO       0.056700
     17 HDP1        -1.8840     1.3470    -1.2930 h1         1 GIO       0.059200
     18 HDP2        -2.5350    -0.2930    -1.3110 h1         1 GIO       0.059200
     19 HAC1        -0.3140     0.1710     3.0210 h1         1 GIO       0.073200
     20 HAC2        -0.1150    -1.4090     2.2780 h1         1 GIO       0.073200
     21 H            1.9000     0.3510     2.3430 hn         1 GIO       0.328500
@<TRIPOS>BOND
     1     1     2 2   
     2     2     3 1   
     3     2    11 1   
     4     3     4 1   
     5     3     7 1   
     6     3    12 1   
     7     4     5 1   
     8     4    13 1   
     9     4    14 1   
    10     5     6 1   
    11     5    15 1   
    12     5    16 1   
    13     6     7 1   
    14     6    17 1   
    15     6    18 1   
    16     7     8 1   
    17     8     9 2   
    18     8    10 1   
    19    10    11 1   
    20    10    19 1   
    21    10    20 1   
    22    11    21 1   
@<TRIPOS>SUBSTRUCTURE
     1 GIO         1 TEMP              0 ****  ****    0 ROOT
