@<TRIPOS>MOLECULE
GIO
   21    22     1     0     0
SMALL
No Charge or Current Charge


@<TRIPOS>ATOM
      1 OP           2.9070     0.0170     0.0600 o          1 GIO      -0.547000
      2 CP           1.7330    -0.1520     0.3520 c          1 GIO       0.562000
      3 CAP          0.5650    -0.5200    -0.6270 c5         1 GIO       0.025700
      4 CBP          0.6820     0.2110    -1.9930 c5         1 GIO      -0.073400
      5 CGP         -0.7390    -0.0320    -2.5750 c5         1 GIO      -0.099400
      6 CDP         -1.6610     0.2830    -1.3620 c5         1 GIO       0.103000
      7 NP          -0.7950    -0.0840    -0.2250 n          1 GIO      -0.410800
      8 C           -1.2080    -0.0760     1.1130 c          1 GIO       0.560000
      9 O           -2.3710     0.1360     1.4310 o          1 GIO      -0.552000
     10 CA          -0.0830    -0.2480     2.1590 c6         1 GIO       0.020000
     11 N            1.2770     0.0760     1.6380 ns         1 GIO      -0.503900
     12 HAP          0.5810    -1.6100    -0.7550 h1         1 GIO       0.070700
     13 HBP1         0.8840     1.2810    -1.8630 hc         1 GIO       0.069700
     14 HBP2         1.4770    -0.2020    -2.6250 hc         1 GIO       0.069700
     15 HGP1        -0.9590     0.6020    -3.4420 hc         1 GIO       0.056700
     16 HGP2        -0.8580    -1.0740    -2.8960 hc         1 GIO       0.056700
     17 HDP1        -1.9180     1.3500    -1.3190 h1         1 GIO       0.059200
     18 HDP2        -2.5910    -0.3000    -1.3860 h1         1 GIO       0.059200
     19 HAC1        -0.3150     0.4010     3.0140 h1         1 GIO       0.073200
     20 HAC2        -0.1010    -1.2960     2.4880 h1         1 GIO       0.073200
     21 H            1.9830     0.3800     2.3000 hn         1 GIO       0.328500
@<TRIPOS>BOND
     1     1     2 2   
     2     2     3 1   
     3     2    11 1   
     4     3     4 1   
     5     3     7 1   
     6     3    12 1   
     7     4     5 1   
     8     4    13 1   
     9     4    14 1   
    10     5     6 1   
    11     5    15 1   
    12     5    16 1   
    13     6     7 1   
    14     6    17 1   
    15     6    18 1   
    16     7     8 1   
    17     8     9 2   
    18     8    10 1   
    19    10    11 1   
    20    10    19 1   
    21    10    20 1   
    22    11    21 1   
@<TRIPOS>SUBSTRUCTURE
     1 GIO         1 TEMP              0 ****  ****    0 ROOT
