@<TRIPOS>MOLECULE
GIP
   52    52     1     0     0
SMALL
abcg2


@<TRIPOS>ATOM
      1 C           -0.0620   -12.6870    14.1330 c2         1 GIP       0.347000
      2 OT1         -0.9510   -12.7420    15.0210 o          1 GIP      -0.588000
      3 OT2          0.5000   -11.6460    13.7070 o          1 GIP      -0.588000
      4 N            0.4530   -15.0610    14.5200 n8         1 GIP      -0.307000
      5 CA           0.3430   -14.0300    13.4790 c3         1 GIP      -0.132000
      6 CB          -0.6700   -14.4070    12.3820 c3         1 GIP      -0.156000
      7 CB2          2.7480   -10.7390     9.1440 c3         1 GIP      -0.218000
      8 SG2          1.5130    -9.8200     8.1570 ss         1 GIP      -0.013000
      9 CG          -0.7020   -13.4530    11.1850 c3         1 GIP      -0.160000
     10 CD           0.5830   -13.5010    10.3820 c2         1 GIP       0.317000
     11 OE           1.0490   -14.5630     9.9570 o          1 GIP      -0.400000
     12 N2           1.1790   -12.3190    10.1490 ns         1 GIP      -0.357000
     13 CA2          2.3870   -12.2090     9.3660 c3         1 GIP       0.022000
     14 C2           3.5780   -12.8800    10.0750 c2         1 GIP       0.285000
     15 O2           3.7480   -12.7700    11.2910 o          1 GIP      -0.373000
     16 N3           4.4200   -13.5200     9.2620 ns         1 GIP      -0.346000
     17 CA3          5.6570   -14.1410     9.6830 c3         1 GIP      -0.108000
     18 C3           6.4120   -14.7300     8.4720 c2         1 GIP       0.336000
     19 O31          5.8730   -14.6110     7.3440 o          1 GIP      -0.581500
     20 O32          7.5060   -15.2790     8.7380 o          1 GIP      -0.581500
     21 NE2          1.3280    -7.5320     9.7780 n3         1 GIP      -0.082000
     22 OF2          2.6230    -7.8270    10.2710 oh         1 GIP      -0.269000
     23 CD2          0.6500    -8.7590     9.3940 c3         1 GIP       0.038000
     24 OZ1          0.3580    -9.5270    10.5290 oh         1 GIP      -0.272000
     25 CG2          1.3590    -6.4970     8.8060 c2         1 GIP      -1.060000
     26 CL1          2.5560    -5.9610     8.3350 cl         1 GIP       1.458500
     27 CL2          0.1470    -5.9770     8.3410 cl         1 GIP       1.458500
     28 CM1          2.5450    -4.9230     7.4100 c2         1 GIP      -0.914500
     29 CM2          0.1330    -4.9510     7.4070 c2         1 GIP      -0.914500
     30 CZ           1.3360    -4.4260     6.9460 c2         1 GIP       0.012000
     31 I            1.3170    -2.8450     5.5400 i          1 GIP       0.069000
     32 H11N         0.4340   -15.9840    14.0950 hn         1 GIP       0.112000
     33 H12N        -0.3760   -14.9880    15.1040 hn         1 GIP       0.112000
     34 HA1          1.3250   -13.8950    13.0200 h1         1 GIP       0.123000
     35 HB1         -0.4270   -15.4110    12.0230 hc         1 GIP       0.064500
     36 HB2         -1.6660   -14.4570    12.8300 hc         1 GIP       0.064500
     37 HB21         3.6850   -10.6820     8.5930 h1         1 GIP       0.132500
     38 HB22         2.8790   -10.2250    10.0920 h1         1 GIP       0.132500
     39 HG1         -1.5050   -13.7550    10.5070 hc         1 GIP       0.087000
     40 HG2         -0.9120   -12.4330    11.5080 hc         1 GIP       0.087000
     41 HN21         0.7730   -11.4710    10.5210 hn         1 GIP       0.257000
     42 HA2          2.2370   -12.6970     8.4010 h1         1 GIP       0.105000
     43 HN3          4.2360   -13.5990     8.2700 hn         1 GIP       0.250000
     44 HA31         6.3030   -13.4150    10.1820 h1         1 GIP       0.076500
     45 HA32         5.4640   -14.9440    10.3990 h1         1 GIP       0.076500
     46 HOF2         2.5690    -7.6140    11.2130 ho         1 GIP       0.238000
     47 HD2         -0.2530    -8.4560     8.8630 h3         1 GIP       0.107000
     48 HOZ1        -0.0070    -8.9420    11.2100 ho         1 GIP       0.233000
     49 HL1          3.4970    -6.3470     8.6950 ha         1 GIP      -0.265500
     50 HL2         -0.7920    -6.3560     8.7210 ha         1 GIP      -0.265500
     51 HM1          3.4830    -4.5170     7.0560 h4         1 GIP       0.175500
     52 HM2         -0.8140    -4.5590     7.0610 h4         1 GIP       0.175500
@<TRIPOS>BOND
     1     1     2 1   
     2     1     3 1   
     3     1     5 1   
     4     4     5 1   
     5     4    32 1   
     6     4    33 1   
     7     5     6 1   
     8     5    34 1   
     9     6     9 1   
    10     6    35 1   
    11     6    36 1   
    12     7     8 1   
    13     7    13 1   
    14     7    37 1   
    15     7    38 1   
    16     8    23 1   
    17     9    10 1   
    18     9    39 1   
    19     9    40 1   
    20    10    11 1   
    21    10    12 1   
    22    12    13 1   
    23    12    41 1   
    24    13    14 1   
    25    13    42 1   
    26    14    15 1   
    27    14    16 1   
    28    16    17 1   
    29    16    43 1   
    30    17    18 1   
    31    17    44 1   
    32    17    45 1   
    33    18    19 1   
    34    18    20 1   
    35    21    22 1   
    36    21    23 1   
    37    21    25 1   
    38    22    46 1   
    39    23    24 1   
    40    23    47 1   
    41    24    48 1   
    42    25    26 1   
    43    25    27 1   
    44    26    28 1   
    45    26    49 1   
    46    27    29 1   
    47    27    50 1   
    48    28    30 1   
    49    28    51 1   
    50    29    30 1   
    51    29    52 1   
    52    30    31 1   
@<TRIPOS>SUBSTRUCTURE
     1 GIP         1 TEMP              0 ****  ****    0 ROOT
