@<TRIPOS>MOLECULE
GIP
   52    52     1     0     0
SMALL
No Charge or Current Charge


@<TRIPOS>ATOM
      1 C           -0.0520   -12.9980    13.5450 c          1 GIP       0.347000
      2 OT1         -1.0540   -13.0650    14.2480 o          1 GIP      -0.588000
      3 OT2          0.3190   -11.8940    13.1680 o          1 GIP      -0.588000
      4 N            1.0970   -15.0810    14.2690 n8         1 GIP      -0.307000
      5 CA           0.7020   -14.2560    13.1110 c3         1 GIP      -0.132000
      6 CB          -0.0810   -15.1260    12.0900 c3         1 GIP      -0.156000
      7 CB2          2.1580   -10.4720     9.7260 c3         1 GIP      -0.218000
      8 SG2          0.7240    -9.9650     8.6660 ss         1 GIP      -0.013000
      9 CG          -0.5050   -14.3840    10.7940 c3         1 GIP      -0.160000
     10 CD           0.6540   -13.8940     9.9530 c          1 GIP       0.317000
     11 OE           1.1280   -14.5460     9.0280 o          1 GIP      -0.400000
     12 N2           1.1360   -12.6380    10.3350 ns         1 GIP      -0.357000
     13 CA2          2.3240   -12.0090     9.7470 c3         1 GIP       0.022000
     14 C2           3.5870   -12.4700    10.4770 c          1 GIP       0.285000
     15 O2           4.2220   -11.7650    11.2570 o          1 GIP      -0.373000
     16 N3           3.9480   -13.7920    10.1840 ns         1 GIP      -0.346000
     17 CA3          5.1420   -14.4540    10.7310 c3         1 GIP      -0.108000
     18 C3           5.3680   -15.8220    10.1140 c          1 GIP       0.336000
     19 O31          4.9270   -16.8310    10.6490 o          1 GIP      -0.581500
     20 O32          6.0020   -15.9430     9.0740 o          1 GIP      -0.581500
     21 NE2          1.5650    -7.5820     7.5510 n3         1 GIP      -0.082000
     22 OF2          2.9250    -8.0530     7.6630 oh         1 GIP      -0.269000
     23 CD2          0.8140    -8.1050     8.7200 c3         1 GIP       0.038000
     24 OZ1          1.3670    -7.5840     9.9260 oh         1 GIP      -0.272000
     25 CG2          1.4380    -6.1880     7.1920 c2         1 GIP      -1.060000
     26 Cl1          2.5060    -5.4510     5.9980 cl         1 GIP       1.458500
     27 Cl2          0.1860    -5.6990     6.0490 cl         1 GIP       1.458500
     28 CM1          2.3380    -4.3330     7.4460 c2         1 GIP      -0.914500
     29 CM2          0.1560    -4.5280     7.4620 c2         1 GIP      -0.914500
     30 CZ           1.2020    -3.8910     7.9690 c2         1 GIP       0.012000
     31 I            1.0890    -2.4320     9.6070 i          1 GIP       0.069000
     32 H11N         1.5610   -15.9300    13.9460 hn         1 GIP       0.112000
     33 H12N         0.2630   -15.3850    14.7720 hn         1 GIP       0.112000
     34 HA1          1.6370   -13.9360    12.6340 h1         1 GIP       0.123000
     35 HB1          0.5290   -15.9950    11.8130 hc         1 GIP       0.064500
     36 HB2         -0.9830   -15.5210    12.5750 hc         1 GIP       0.064500
     37 HB21         3.0730   -10.0150     9.3320 h1         1 GIP       0.132500
     38 HB22         2.0020   -10.0990    10.7460 h1         1 GIP       0.132500
     39 HG1         -1.1160   -15.0650    10.1900 hc         1 GIP       0.087000
     40 HG2         -1.1670   -13.5470    11.0480 hc         1 GIP       0.087000
     41 HN21         0.7580   -12.2370    11.1900 hn         1 GIP       0.257000
     42 HA2          2.4060   -12.3390     8.7020 h1         1 GIP       0.105000
     43 HN3          3.3130   -14.3370     9.6070 hn         1 GIP       0.250000
     44 HA31         6.0160   -13.8170    10.5440 h1         1 GIP       0.076500
     45 HA32         5.0220   -14.5520    11.8170 h1         1 GIP       0.076500
     46 HOF2         3.1710    -7.7090     8.5420 ho         1 GIP       0.238000
     47 HD2         -0.2110    -7.7230     8.7010 h3         1 GIP       0.107000
     48 HOZ1         1.5690    -6.6470     9.7230 ho         1 GIP       0.233000
     49 HL1          2.6450    -5.3430     9.6480 ha         1 GIP      -0.265500
     50 HL2         -0.2230    -5.3000     9.7300 ha         1 GIP      -0.265500
     51 HM1          3.3130    -3.9820     7.7680 h4         1 GIP       0.175500
     52 HM2         -0.8630    -4.3530     7.7920 h4         1 GIP       0.175500
@<TRIPOS>BOND
     1     1     2 1   
     2     1     3 1   
     3     1     5 1   
     4     4     5 1   
     5     4    32 1   
     6     4    33 1   
     7     5     6 1   
     8     5    34 1   
     9     6     9 1   
    10     6    35 1   
    11     6    36 1   
    12     7     8 1   
    13     7    13 1   
    14     7    37 1   
    15     7    38 1   
    16     8    23 1   
    17     9    10 1   
    18     9    39 1   
    19     9    40 1   
    20    10    11 1   
    21    10    12 1   
    22    12    13 1   
    23    12    41 1   
    24    13    14 1   
    25    13    42 1   
    26    14    15 1   
    27    14    16 1   
    28    16    17 1   
    29    16    43 1   
    30    17    18 1   
    31    17    44 1   
    32    17    45 1   
    33    18    19 1   
    34    18    20 1   
    35    21    22 1   
    36    21    23 1   
    37    21    25 1   
    38    22    46 1   
    39    23    24 1   
    40    23    47 1   
    41    24    48 1   
    42    25    26 1   
    43    25    27 1   
    44    26    28 1   
    45    26    49 1   
    46    27    29 1   
    47    27    50 1   
    48    28    30 1   
    49    28    51 1   
    50    29    30 1   
    51    29    52 1   
    52    30    31 1   
@<TRIPOS>SUBSTRUCTURE
     1 GIP         1 TEMP              0 ****  ****    0 ROOT
