@<TRIPOS>MOLECULE
GIQ
   25    27     1     0     0
SMALL
abcg2


@<TRIPOS>ATOM
      1 N3A          2.3300    -0.4700    -0.0660 na         1 GIQ      -0.185600
      2 C3A          0.9920    -0.7930    -0.0360 ca         1 GIQ      -0.108200
      3 C1A          0.3250     0.4260    -0.0380 ca         1 GIQ       0.114400
      4 N1A          1.2130     1.4650    -0.0500 nc         1 GIQ      -0.628100
      5 C            3.4420    -1.3900    -0.0810 c3         1 GIQ       0.062900
      6 C4A          0.3300    -2.0260    -0.0100 ca         1 GIQ      -0.082000
      7 C5A         -1.0410    -2.0130     0.0070 ca         1 GIQ      -0.086000
      8 C6A         -1.7710    -0.7950     0.0030 ca         1 GIQ       0.265000
      9 C10         -1.0870     0.4530    -0.0210 ca         1 GIQ      -0.039000
     10 N6A         -3.1230    -0.8610     0.0230 nb         1 GIQ      -0.667000
     11 C7A         -3.8070     0.2530     0.0200 ca         1 GIQ       0.347900
     12 C8A         -3.2210     1.5350    -0.0040 ca         1 GIQ      -0.175000
     13 C9A         -1.8570     1.6320    -0.0250 ca         1 GIQ      -0.044000
     14 C2A          2.3950     0.8900    -0.0600 cd         1 GIQ       0.607700
     15 H1           3.8230    -1.5780     0.9220 h1         1 GIQ       0.052367
     16 H2           3.1220    -2.3330    -0.5170 h1         1 GIQ       0.052367
     17 H3           4.2450    -0.9960    -0.7000 h1         1 GIQ       0.052367
     18 H4A          0.8760    -2.9620    -0.0040 ha         1 GIQ       0.117000
     19 H5A         -1.5990    -2.9400     0.0280 ha         1 GIQ       0.132000
     20 H7A         -4.8880     0.1620     0.0360 h4         1 GIQ       0.015100
     21 H8A         -3.8510     2.4140    -0.0070 ha         1 GIQ       0.122000
     22 H9A         -1.3650     2.5960    -0.0440 ha         1 GIQ       0.134000
     23 H101         4.3680     1.1340     0.3480 hn         1 GIQ       0.469000
     24 H102         3.5130     2.5380     0.0340 hn         1 GIQ       0.469000
     25 N10          3.5830     1.5460    -0.1320 nv         1 GIQ      -0.998200
@<TRIPOS>BOND
     1     1     2 1   
     2     1     5 1   
     3     1    14 1   
     4     2     3 ar  
     5     2     6 ar  
     6     3     4 1   
     7     3     9 ar  
     8     4    14 2   
     9     5    15 1   
    10     5    16 1   
    11     5    17 1   
    12     6     7 ar  
    13     6    18 1   
    14     7     8 ar  
    15     7    19 1   
    16     8     9 ar  
    17     8    10 ar  
    18     9    13 ar  
    19    10    11 ar  
    20    11    12 ar  
    21    11    20 1   
    22    12    13 ar  
    23    12    21 1   
    24    13    22 1   
    25    14    25 1   
    26    23    25 1   
    27    24    25 1   
@<TRIPOS>SUBSTRUCTURE
     1 GIQ         1 TEMP              0 ****  ****    0 ROOT
