@<TRIPOS>MOLECULE
GIQ
   25    27     1     0     0
SMALL
No Charge or Current Charge


@<TRIPOS>ATOM
      1 N3A          2.3550    -0.4840    -0.0650 na         1 GIQ      -0.185600
      2 C3A          1.0160    -0.7690    -0.0330 ca         1 GIQ      -0.108200
      3 C1A          0.3270     0.4190    -0.0490 ca         1 GIQ       0.114400
      4 N1A          1.1880     1.5130    -0.0880 nc         1 GIQ      -0.628100
      5 C            3.4490    -1.4690    -0.0870 c3         1 GIQ       0.062900
      6 C4A          0.3730    -2.0120     0.0120 ca         1 GIQ      -0.082000
      7 C5A         -1.0350    -2.0230     0.0380 ca         1 GIQ      -0.086000
      8 C6A         -1.7780    -0.8190     0.0210 ca         1 GIQ       0.265000
      9 C10         -1.0810     0.4220    -0.0230 ca         1 GIQ      -0.039000
     10 N6A         -3.1330    -0.8730     0.0480 nb         1 GIQ      -0.667000
     11 C7A         -3.8310     0.2870     0.0320 ca         1 GIQ       0.347900
     12 C8A         -3.2160     1.5470    -0.0100 ca         1 GIQ      -0.175000
     13 C9A         -1.8150     1.6230    -0.0380 ca         1 GIQ      -0.044000
     14 C2A          2.3720     0.9130    -0.0970 cd         1 GIQ       0.607700
     15 H1           3.6200    -1.8490     0.9280 h1         1 GIQ       0.052367
     16 H2           3.1830    -2.3040    -0.7460 h1         1 GIQ       0.052367
     17 H3           4.3690    -1.0040    -0.4600 h1         1 GIQ       0.052367
     18 H4A          0.9360    -2.9430     0.0270 ha         1 GIQ       0.117000
     19 H5A         -1.5610    -2.9730     0.0730 ha         1 GIQ       0.132000
     20 H7A         -4.9170     0.2000     0.0550 h4         1 GIQ       0.015100
     21 H8A         -3.8220     2.4490    -0.0210 ha         1 GIQ       0.122000
     22 H9A         -1.3140     2.5890    -0.0720 ha         1 GIQ       0.134000
     23 H101         4.3520     1.1870     0.2030 hn         1 GIQ       0.469000
     24 H102         3.4070     2.6240     0.0920 hn         1 GIQ       0.469000
     25 N10          3.5030     1.6370    -0.1150 nv         1 GIQ      -0.998200
@<TRIPOS>BOND
     1     1     2 1   
     2     1     5 1   
     3     1    14 1   
     4     2     3 ar  
     5     2     6 ar  
     6     3     4 1   
     7     3     9 ar  
     8     4    14 2   
     9     5    15 1   
    10     5    16 1   
    11     5    17 1   
    12     6     7 ar  
    13     6    18 1   
    14     7     8 ar  
    15     7    19 1   
    16     8     9 ar  
    17     8    10 ar  
    18     9    13 ar  
    19    10    11 ar  
    20    11    12 ar  
    21    11    20 1   
    22    12    13 ar  
    23    12    21 1   
    24    13    22 1   
    25    14    25 1   
    26    23    25 1   
    27    24    25 1   
@<TRIPOS>SUBSTRUCTURE
     1 GIQ         1 TEMP              0 ****  ****    0 ROOT
