@<TRIPOS>MOLECULE
GIR
   23    23     1     0     0
SMALL
bcc


@<TRIPOS>ATOM
      1 N1          -0.6810    -1.4440     1.6170 n8         1 GIR      -0.913800
      2 C2          -0.8260    -0.5100     0.5130 c3         1 GIR       0.139800
      3 C3          -1.6100    -1.1000    -0.6430 c3         1 GIR       0.073700
      4 CL1         -3.3690    -1.1770    -0.1850 cl         1 GIR      -0.216400
      5 C4          -1.1790    -2.4990    -1.0790 c3         1 GIR       0.241400
      6 O5          -1.8790    -2.7890    -2.2610 oh         1 GIR      -0.581800
      7 C6           0.2970    -2.5720    -1.3020 cc         1 GIR      -0.291900
      8 N7           1.1930    -2.7270    -0.2650 na         1 GIR      -0.322900
      9 C8           1.0600    -2.5540    -2.4280 cd         1 GIR       0.342200
     10 N9           2.3920    -2.6910    -2.1120 nd         1 GIR      -0.729000
     11 C10          2.4290    -2.7800    -0.8040 cc         1 GIR       0.622400
     12 N11          3.5660    -2.8470    -0.0350 nv         1 GIR      -0.907500
     13 HN11        -1.5900    -1.6560     2.0130 hn         1 GIR       0.352800
     14 HN12        -0.1520    -1.0030     2.3580 hn         1 GIR       0.352800
     15 H21         -1.2940     0.4420     0.7880 h1         1 GIR       0.053700
     16 H22          0.1680    -0.2610     0.1370 h1         1 GIR       0.053700
     17 H3          -1.5550    -0.4190    -1.4940 h1         1 GIR       0.095700
     18 H4          -1.4440    -3.1990    -0.2750 h1         1 GIR       0.055700
     19 HO5         -1.6880    -3.7000    -2.5060 ho         1 GIR       0.417000
     20 HN7          0.9260    -2.6600     0.7120 hn         1 GIR       0.327700
     21 H8           0.7310    -2.4690    -3.4510 h4         1 GIR       0.040100
     22 H111         4.3780    -3.1200    -0.5680 hn         1 GIR       0.398300
     23 H112         3.4810    -3.4070     0.7990 hn         1 GIR       0.398300
@<TRIPOS>BOND
     1     1     2 1   
     2     1    13 1   
     3     1    14 1   
     4     2     3 1   
     5     2    15 1   
     6     2    16 1   
     7     3     4 1   
     8     3     5 1   
     9     3    17 1   
    10     5     6 1   
    11     5     7 1   
    12     5    18 1   
    13     6    19 1   
    14     7     8 1   
    15     7     9 2   
    16     8    11 1   
    17     8    20 1   
    18     9    10 1   
    19     9    21 1   
    20    10    11 2   
    21    11    12 1   
    22    12    22 1   
    23    12    23 1   
@<TRIPOS>SUBSTRUCTURE
     1 GIR         1 TEMP              0 ****  ****    0 ROOT
