@<TRIPOS>MOLECULE
GIR
   23    23     1     0     0
SMALL
No Charge or Current Charge


@<TRIPOS>ATOM
      1 N1          -1.3220    -0.8520     1.8390 n8         1 GIR      -1.024200
      2 C2          -1.0670    -0.3350     0.4630 c3         1 GIR       0.139800
      3 C3          -1.6860    -1.2050    -0.6700 c3         1 GIR       0.150300
      4 Cl1         -3.5040    -1.3190    -0.4460 cl         1 GIR      -0.293000
      5 C4          -1.0320    -2.6150    -0.8000 c3         1 GIR       0.264600
      6 O5          -1.6480    -3.3640    -1.8530 oh         1 GIR      -0.644000
      7 C6           0.4460    -2.5700    -1.0920 cc         1 GIR      -0.277300
      8 N7           1.4240    -3.2810    -0.4170 na         1 GIR      -0.322500
      9 C8           1.1320    -1.8430    -2.0410 cd         1 GIR       0.276900
     10 N9           2.4910    -2.0920    -1.9580 nd         1 GIR      -0.729000
     11 C10          2.6060    -2.9440    -0.9850 cc         1 GIR       0.622400
     12 N11          3.7750    -3.4400    -0.5920 nv         1 GIR      -1.017900
     13 HN11        -2.3370    -0.8750     2.0000 hn         1 GIR       0.408000
     14 HN12        -0.9870    -0.1630     2.5260 hn         1 GIR       0.408000
     15 H21         -1.4870     0.6790     0.3900 h1         1 GIR       0.053700
     16 H22          0.0180    -0.2510     0.3100 h1         1 GIR       0.053700
     17 H3          -1.5350    -0.6770    -1.6200 h1         1 GIR       0.095700
     18 H4          -1.1770    -3.1390     0.1550 h1         1 GIR       0.055700
     19 HO5         -1.1080    -4.1760    -1.9550 ho         1 GIR       0.456000
     20 HN7          1.3110    -3.9160     0.3620 hn         1 GIR       0.378000
     21 H8           0.7240    -1.1570    -2.7750 h4         1 GIR       0.040100
     22 H111         4.5480    -3.2900    -1.2290 hn         1 GIR       0.453500
     23 H112         3.7710    -4.3170    -0.0830 hn         1 GIR       0.453500
@<TRIPOS>BOND
     1     1     2 1   
     2     1    13 1   
     3     1    14 1   
     4     2     3 1   
     5     2    15 1   
     6     2    16 1   
     7     3     4 1   
     8     3     5 1   
     9     3    17 1   
    10     5     6 1   
    11     5     7 1   
    12     5    18 1   
    13     6    19 1   
    14     7     8 1   
    15     7     9 2   
    16     8    11 1   
    17     8    20 1   
    18     9    10 1   
    19     9    21 1   
    20    10    11 2   
    21    11    12 1   
    22    12    22 1   
    23    12    23 1   
@<TRIPOS>SUBSTRUCTURE
     1 GIR         1 TEMP              0 ****  ****    0 ROOT
