@<TRIPOS>MOLECULE
GIS
   33    33     1     0     0
SMALL
bcc


@<TRIPOS>ATOM
      1 C1          -1.8610     0.7560     0.1220 c          1 GIS       0.921200
      2 O1          -1.9390     0.5500     1.3540 o          1 GIS      -0.818300
      3 OXT         -2.7530     1.2290    -0.6010 o          1 GIS      -0.818300
      4 C2          -0.5500     0.3630    -0.5450 ca         1 GIS      -0.091600
      5 C3          -0.5720     0.1580    -1.9220 ca         1 GIS      -0.126000
      6 C4           0.5600    -0.2710    -2.6120 ca         1 GIS       0.158600
      7 C6           1.7300    -0.4800    -1.8790 ca         1 GIS      -0.222000
      8 C7           1.7590    -0.2580    -0.5160 ca         1 GIS      -0.096000
      9 C8           0.6330     0.1680     0.1800 ca         1 GIS      -0.102300
     10 C9           0.6590     0.4180     1.6660 c3         1 GIS       0.123000
     11 C10         -0.0020    -0.6990     2.4510 c          1 GIS       0.695100
     12 O2          -0.0830    -1.8340     2.0570 o          1 GIS      -0.547000
     13 O3          -0.3580    -0.2960     3.6560 os         1 GIS      -0.404900
     14 C11         -0.9410    -1.2640     4.5390 c3         1 GIS       0.149400
     15 C12         -1.2480    -0.5710     5.8450 c3         1 GIS      -0.092100
     16 N1           0.6220    -0.5030    -3.9780 nu         1 GIS      -0.736600
     17 C5          -0.3420    -0.3450    -4.9480 c2         1 GIS       0.802100
     18 N2          -1.5520    -0.0440    -4.6650 n2         1 GIS      -0.845100
     19 N3           0.1490    -0.6170    -6.2080 nv         1 GIS      -0.969800
     20 CL           2.3520     0.4930     2.3330 cl         1 GIS      -0.268400
     21 H3          -1.4890     0.3250    -2.4620 ha         1 GIS       0.192000
     22 H6           2.6330    -0.8150    -2.3770 ha         1 GIS       0.100000
     23 H7           2.6930    -0.4230     0.0030 ha         1 GIS       0.123000
     24 H9           0.2280     1.3800     1.9260 h1         1 GIS       0.122700
     25 H111        -0.2440    -2.0910     4.6920 h1         1 GIS       0.042200
     26 H112        -1.8500    -1.6670     4.0900 h1         1 GIS       0.042200
     27 H121        -1.6930    -1.2900     6.5330 hc         1 GIS       0.036367
     28 H122        -0.3470    -0.1740     6.3120 hc         1 GIS       0.036367
     29 H123        -1.9590     0.2440     5.7080 hc         1 GIS       0.036367
     30 HN1          1.5090    -0.8540    -4.3010 hn         1 GIS       0.420800
     31 HN2         -2.0950     0.0630    -5.5130 hn         1 GIS       0.366400
     32 HN31        -0.4480    -0.3280    -6.9650 hn         1 GIS       0.387300
     33 HN32         1.1130    -0.3780    -6.3840 hn         1 GIS       0.387300
@<TRIPOS>BOND
     1     1     2 1   
     2     1     3 1   
     3     1     4 1   
     4     4     5 ar  
     5     4     9 ar  
     6     5     6 ar  
     7     5    21 1   
     8     6     7 ar  
     9     6    16 1   
    10     7     8 ar  
    11     7    22 1   
    12     8     9 ar  
    13     8    23 1   
    14     9    10 1   
    15    10    11 1   
    16    10    20 1   
    17    10    24 1   
    18    11    12 2   
    19    11    13 1   
    20    13    14 1   
    21    14    15 1   
    22    14    25 1   
    23    14    26 1   
    24    15    27 1   
    25    15    28 1   
    26    15    29 1   
    27    16    17 1   
    28    16    30 1   
    29    17    18 2   
    30    17    19 1   
    31    18    31 1   
    32    19    32 1   
    33    19    33 1   
@<TRIPOS>SUBSTRUCTURE
     1 GIS         1 TEMP              0 ****  ****    0 ROOT
