@<TRIPOS>MOLECULE
GIS
   33    33     1     0     0
SMALL
No Charge or Current Charge


@<TRIPOS>ATOM
      1 C1          -1.7040     1.5110     0.0340 c          1 GIS       0.710600
      2 O1          -2.2390     0.9820     0.9970 o          1 GIS      -0.713000
      3 OXT         -2.1030     2.5500    -0.4720 o          1 GIS      -0.713000
      4 C2          -0.5190     0.8160    -0.6030 ca         1 GIS      -0.091600
      5 C3          -0.5140     0.6610    -2.0080 ca         1 GIS      -0.108000
      6 C4           0.5320    -0.0070    -2.6630 ca         1 GIS       0.297000
      7 C6           1.5980    -0.5170    -1.9130 ca         1 GIS      -0.204000
      8 C7           1.6180    -0.3670    -0.5170 ca         1 GIS      -0.078000
      9 C8           0.5740     0.3070     0.1560 ca         1 GIS      -0.102300
     10 C9           0.6530     0.4760     1.6880 c3         1 GIS       0.199600
     11 C10          0.1320    -0.7660     2.4530 c          1 GIS       0.646100
     12 O2           0.2370    -1.9230     2.0530 o          1 GIS      -0.498000
     13 O3          -0.3620    -0.4300     3.6920 os         1 GIS      -0.428100
     14 C11         -0.8490    -1.4870     4.5340 c3         1 GIS       0.172600
     15 C12         -1.3420    -0.8450     5.8410 c3         1 GIS      -0.092100
     16 N1           0.5520    -0.1510    -4.0460 nu         1 GIS      -0.930200
     17 C5          -0.3880    -0.5420    -4.8780 c2         1 GIS       0.802100
     18 N2          -1.4830    -1.0240    -4.5320 n2         1 GIS      -0.845100
     19 N3           0.2430    -0.7060    -6.0110 nv         1 GIS      -1.080200
     20 Cl           2.3430     0.9710     2.2230 cl         1 GIS      -0.345000
     21 H3          -1.3370     1.0560    -2.5950 ha         1 GIS       0.174000
     22 H6           2.4160    -1.0340    -2.4070 ha         1 GIS       0.082000
     23 H7           2.4550    -0.7800     0.0420 ha         1 GIS       0.105000
     24 H9           0.0180     1.3100     2.0020 h1         1 GIS       0.122700
     25 H111        -0.0520    -2.2080     4.7590 h1         1 GIS       0.042200
     26 H112        -1.6790    -2.0210     4.0530 h1         1 GIS       0.042200
     27 H121        -1.7250    -1.6150     6.5200 hc         1 GIS       0.036367
     28 H122        -0.5240    -0.3170     6.3450 hc         1 GIS       0.036367
     29 H123        -2.1490    -0.1310     5.6400 hc         1 GIS       0.036367
     30 HN1          1.4390    -0.4640    -4.4090 hn         1 GIS       0.476000
     31 HN2         -1.9250    -1.4300    -5.3620 hn         1 GIS       0.366400
     32 HN31        -0.3570    -1.0540    -6.7470 hn         1 GIS       0.442500
     33 HN32         0.7560     0.1250    -6.2750 hn         1 GIS       0.442500
@<TRIPOS>BOND
     1     1     2 1   
     2     1     3 1   
     3     1     4 1   
     4     4     5 ar  
     5     4     9 ar  
     6     5     6 ar  
     7     5    21 1   
     8     6     7 ar  
     9     6    16 1   
    10     7     8 ar  
    11     7    22 1   
    12     8     9 ar  
    13     8    23 1   
    14     9    10 1   
    15    10    11 1   
    16    10    20 1   
    17    10    24 1   
    18    11    12 2   
    19    11    13 1   
    20    13    14 1   
    21    14    15 1   
    22    14    25 1   
    23    14    26 1   
    24    15    27 1   
    25    15    28 1   
    26    15    29 1   
    27    16    17 1   
    28    16    30 1   
    29    17    18 2   
    30    17    19 1   
    31    18    31 1   
    32    19    32 1   
    33    19    33 1   
@<TRIPOS>SUBSTRUCTURE
     1 GIS         1 TEMP              0 ****  ****    0 ROOT
