@<TRIPOS>MOLECULE
GIT
   47    49     1     0     0
SMALL
abcg2


@<TRIPOS>ATOM
      1 C15         19.4470   -17.2260   -33.2170 c3         1 GIT       0.169300
      2 C17         21.5430   -16.4940   -34.4200 ca         1 GIT      -0.096000
      3 C22         22.8910   -13.5470   -30.5160 ca         1 GIT      -0.117500
      4 C12         18.7600   -14.8720   -32.8530 c          1 GIT       0.639100
      5 C18         22.9250   -16.4130   -34.5220 ca         1 GIT      -0.109000
      6 C01         16.7400   -14.2410   -26.9630 c3         1 GIT      -0.199100
      7 C02         18.0610   -13.9210   -27.5890 c          1 GIT       0.557100
      8 C04         18.7710   -15.1140   -28.2120 c3         1 GIT      -0.043400
      9 C08         21.8790   -14.0900   -29.6110 cc         1 GIT       0.290500
     10 C09         20.5200   -14.2310   -29.7870 cd         1 GIT      -0.175300
     11 C10         19.6280   -13.8600   -30.9120 c3         1 GIT       0.250900
     12 C16         20.9490   -17.0960   -33.3140 ca         1 GIT      -0.115300
     13 C19         23.7320   -16.9300   -33.5170 ca         1 GIT      -0.099000
     14 C20         23.1470   -17.5290   -32.4100 ca         1 GIT      -0.109000
     15 C21         21.7640   -17.6070   -32.3100 ca         1 GIT      -0.096000
     16 C23         23.9560   -12.8040   -30.0020 ca         1 GIT      -0.085500
     17 C24         24.9250   -12.2890   -30.8480 ca         1 GIT      -0.117000
     18 C25         24.8450   -12.5050   -32.2190 ca         1 GIT      -0.104000
     19 C26         23.7950   -13.2510   -32.7350 ca         1 GIT      -0.117000
     20 C27         22.8280   -13.7750   -31.8900 ca         1 GIT      -0.085500
     21 N05         20.1070   -14.7950   -28.6340 na         1 GIT       0.145800
     22 N06         21.1150   -14.9640   -27.7990 nd         1 GIT      -0.191800
     23 N07         22.1850   -14.5460   -28.3750 nc         1 GIT      -0.350000
     24 N14         18.7230   -16.0190   -33.5550 ns         1 GIT      -0.501900
     25 O03         18.5520   -12.8220   -27.6160 o          1 GIT      -0.483100
     26 O11         19.4620   -15.0220   -31.7210 os         1 GIT      -0.456100
     27 O13         18.2260   -13.8330   -33.1790 o          1 GIT      -0.538000
     28 H151        19.1020   -17.9910   -33.9140 h1         1 GIT       0.054700
     29 H152        19.1690   -17.5750   -32.2210 h1         1 GIT       0.054700
     30 H171        20.9250   -16.0850   -35.2110 ha         1 GIT       0.111000
     31 H181        23.3730   -15.9420   -35.3880 ha         1 GIT       0.116000
     32 H012        16.2250   -13.3390   -26.6420 hc         1 GIT       0.068367
     33 H1          16.1080   -14.7940   -27.6610 hc         1 GIT       0.068367
     34 H011        16.8950   -14.8910   -26.0990 hc         1 GIT       0.068367
     35 H041        18.1880   -15.4810   -29.0600 h1         1 GIT       0.093200
     36 H042        18.8240   -15.9350   -27.4950 h1         1 GIT       0.093200
     37 H102        20.0900   -13.0510   -31.4810 h1         1 GIT       0.072200
     38 H101        18.6620   -13.5000   -30.5520 h1         1 GIT       0.072200
     39 H191        24.8090   -16.8610   -33.5940 ha         1 GIT       0.116000
     40 H201        23.7670   -17.9280   -31.6170 ha         1 GIT       0.116000
     41 H211        21.3130   -18.0670   -31.4390 ha         1 GIT       0.111000
     42 H231        24.0190   -12.6210   -28.9370 ha         1 GIT       0.125000
     43 H241        25.7440   -11.7120   -30.4370 ha         1 GIT       0.112500
     44 H251        25.6020   -12.1000   -32.8780 ha         1 GIT       0.111000
     45 H261        23.7340   -13.4430   -33.7980 ha         1 GIT       0.112500
     46 H271        22.0440   -14.3950   -32.3070 ha         1 GIT       0.125000
     47 H141        18.2380   -15.9810   -34.4360 hn         1 GIT       0.336500
@<TRIPOS>BOND
     1     1    12 1   
     2     1    24 1   
     3     1    28 1   
     4     1    29 1   
     5     2     5 ar  
     6     2    12 ar  
     7     2    30 1   
     8     3     9 1   
     9     3    16 ar  
    10     3    20 ar  
    11     4    24 1   
    12     4    26 1   
    13     4    27 2   
    14     5    13 ar  
    15     5    31 1   
    16     6     7 1   
    17     6    32 1   
    18     6    33 1   
    19     6    34 1   
    20     7     8 1   
    21     7    25 2   
    22     8    21 1   
    23     8    35 1   
    24     8    36 1   
    25     9    10 2   
    26     9    23 1   
    27    10    11 1   
    28    10    21 1   
    29    11    26 1   
    30    11    37 1   
    31    11    38 1   
    32    12    15 ar  
    33    13    14 ar  
    34    13    39 1   
    35    14    15 ar  
    36    14    40 1   
    37    15    41 1   
    38    16    17 ar  
    39    16    42 1   
    40    17    18 ar  
    41    17    43 1   
    42    18    19 ar  
    43    18    44 1   
    44    19    20 ar  
    45    19    45 1   
    46    20    46 1   
    47    21    22 1   
    48    22    23 2   
    49    24    47 1   
@<TRIPOS>SUBSTRUCTURE
     1 GIT         1 TEMP              0 ****  ****    0 ROOT
