@<TRIPOS>MOLECULE
GIT
   47    49     1     0     0
SMALL
No Charge or Current Charge


@<TRIPOS>ATOM
      1 C15         19.3480   -17.0400   -33.5720 c3         1 GIT       0.169300
      2 C17         21.7160   -16.7960   -34.4800 ca         1 GIT      -0.096000
      3 C22         22.7700   -13.5770   -30.5170 ca         1 GIT      -0.117500
      4 C12         18.8620   -14.5920   -33.1940 c          1 GIT       0.639100
      5 C18         23.1110   -16.7840   -34.3030 ca         1 GIT      -0.109000
      6 C01         17.5930   -14.3840   -26.3040 c3         1 GIT      -0.199100
      7 C02         17.7750   -14.1670   -27.8050 c          1 GIT       0.557100
      8 C04         18.5190   -15.2570   -28.5700 c3         1 GIT      -0.043400
      9 C08         21.7670   -14.2010   -29.6440 cc         1 GIT       0.290500
     10 C09         20.4360   -14.2370   -29.9310 cd         1 GIT      -0.175300
     11 C10         19.6400   -13.7220   -31.1010 c3         1 GIT       0.250900
     12 C16         20.8630   -17.0480   -33.3870 ca         1 GIT      -0.115300
     13 C19         23.6620   -17.0260   -33.0330 ca         1 GIT      -0.099000
     14 C20         22.8180   -17.2800   -31.9400 ca         1 GIT      -0.109000
     15 C21         21.4230   -17.2920   -32.1160 ca         1 GIT      -0.096000
     16 C23         23.8240   -12.8290   -29.9520 ca         1 GIT      -0.085500
     17 C24         24.8240   -12.2710   -30.7680 ca         1 GIT      -0.117000
     18 C25         24.7960   -12.4760   -32.1570 ca         1 GIT      -0.104000
     19 C26         23.7710   -13.2490   -32.7270 ca         1 GIT      -0.117000
     20 C27         22.7700   -13.8040   -31.9120 ca         1 GIT      -0.085500
     21 N05         19.9150   -14.8860   -28.8280 na         1 GIT       0.145800
     22 N06         20.9070   -15.1710   -27.9190 nd         1 GIT      -0.191800
     23 N07         22.0360   -14.7340   -28.4180 nc         1 GIT      -0.350000
     24 N14         18.8340   -15.7240   -33.9650 ns         1 GIT      -0.501900
     25 O03         17.3480   -13.1640   -28.3610 o          1 GIT      -0.483100
     26 O11         19.4190   -14.8330   -31.9760 os         1 GIT      -0.456100
     27 O13         18.4430   -13.5130   -33.5780 o          1 GIT      -0.538000
     28 H151        19.0770   -17.7670   -34.3480 h1         1 GIT       0.054700
     29 H152        18.8520   -17.3500   -32.6420 h1         1 GIT       0.054700
     30 H171        21.2970   -16.6030   -35.4650 ha         1 GIT       0.111000
     31 H181        23.7640   -16.5850   -35.1500 ha         1 GIT       0.116000
     32 H012        17.0770   -13.5500   -25.8160 hc         1 GIT       0.068367
     33 H1          17.0690   -15.3330   -26.1420 hc         1 GIT       0.068367
     34 H011        18.5720   -14.5790   -25.8510 hc         1 GIT       0.068367
     35 H041        18.0010   -15.4340   -29.5190 h1         1 GIT       0.093200
     36 H042        18.4930   -16.1840   -27.9850 h1         1 GIT       0.093200
     37 H102        20.2020   -12.9240   -31.6040 h1         1 GIT       0.072200
     38 H101        18.6890   -13.2960   -30.7570 h1         1 GIT       0.072200
     39 H191        24.7410   -17.0120   -32.8960 ha         1 GIT       0.116000
     40 H201        23.2420   -17.4600   -30.9550 ha         1 GIT       0.116000
     41 H211        20.7780   -17.4780   -31.2600 ha         1 GIT       0.111000
     42 H231        23.8650   -12.6690   -28.8770 ha         1 GIT       0.125000
     43 H241        25.6240   -11.6850   -30.3220 ha         1 GIT       0.112500
     44 H251        25.5720   -12.0490   -32.7880 ha         1 GIT       0.111000
     45 H261        23.7580   -13.4290   -33.7990 ha         1 GIT       0.112500
     46 H271        22.0080   -14.4270   -32.3700 ha         1 GIT       0.125000
     47 H141        18.4340   -15.6180   -34.8880 hn         1 GIT       0.336500
@<TRIPOS>BOND
     1     1    12 1   
     2     1    24 1   
     3     1    28 1   
     4     1    29 1   
     5     2     5 ar  
     6     2    12 ar  
     7     2    30 1   
     8     3     9 1   
     9     3    16 ar  
    10     3    20 ar  
    11     4    24 1   
    12     4    26 1   
    13     4    27 2   
    14     5    13 ar  
    15     5    31 1   
    16     6     7 1   
    17     6    32 1   
    18     6    33 1   
    19     6    34 1   
    20     7     8 1   
    21     7    25 2   
    22     8    21 1   
    23     8    35 1   
    24     8    36 1   
    25     9    10 2   
    26     9    23 1   
    27    10    11 1   
    28    10    21 1   
    29    11    26 1   
    30    11    37 1   
    31    11    38 1   
    32    12    15 ar  
    33    13    14 ar  
    34    13    39 1   
    35    14    15 ar  
    36    14    40 1   
    37    15    41 1   
    38    16    17 ar  
    39    16    42 1   
    40    17    18 ar  
    41    17    43 1   
    42    18    19 ar  
    43    18    44 1   
    44    19    20 ar  
    45    19    45 1   
    46    20    46 1   
    47    21    22 1   
    48    22    23 2   
    49    24    47 1   
@<TRIPOS>SUBSTRUCTURE
     1 GIT         1 TEMP              0 ****  ****    0 ROOT
