@<TRIPOS>MOLECULE
GIU
   34    36     1     0     0
SMALL
bcc


@<TRIPOS>ATOM
      1 C05         39.3050   -37.6070    28.7610 c5         1 GIU       0.176500
      2 C06         40.8320   -37.7470    28.8980 c5         1 GIU      -0.157400
      3 C07         41.3670   -36.9070    27.7380 c5         1 GIU       0.137800
      4 C09         39.1280   -36.3670    27.8380 c5         1 GIU       0.137800
      5 C10         37.0430   -40.8760    28.2670 ca         1 GIU      -0.266500
      6 C11         35.7720   -40.2400    28.3540 ca         1 GIU       0.078000
      7 C12         35.5000   -38.9950    28.9640 ca         1 GIU      -0.235300
      8 C13         34.2210   -38.5110    28.9560 ca         1 GIU       0.408200
      9 C15         33.3980   -40.3000    27.8330 ca         1 GIU       0.435200
     10 C16         34.6720   -40.9120    27.7680 ca         1 GIU      -0.190300
     11 C17         34.8430   -42.1620    27.1340 ca         1 GIU      -0.039000
     12 C18         36.0770   -42.7410    27.0740 ca         1 GIU      -0.163000
     13 C19         37.1860   -42.0890    27.6450 ca         1 GIU       0.001000
     14 N04         38.6150   -38.7460    28.1480 n7         1 GIU      -0.821100
     15 N08         40.4420   -35.7870    27.6180 n7         1 GIU      -0.774200
     16 N14         33.1700   -39.1490    28.3990 nb         1 GIU      -0.663000
     17 O01         39.6100   -41.0500    28.7620 o          1 GIU      -0.616300
     18 O03         38.1970   -39.7890    30.3810 o          1 GIU      -0.616300
     19 S02         38.4880   -40.1520    29.0020 sy         1 GIU       1.282200
     20 H1          38.8370   -37.4320    29.7270 h1         1 GIU       0.091700
     21 H2          41.1700   -38.7820    28.8860 hc         1 GIU       0.067700
     22 H3          41.1530   -37.3080    29.8450 hc         1 GIU       0.067700
     23 H4          41.3520   -37.4870    26.8090 h1         1 GIU       0.059700
     24 H5          42.3870   -36.5560    27.8880 h1         1 GIU       0.059700
     25 H6          38.4440   -35.6340    28.2630 h1         1 GIU       0.063700
     26 H7          38.7000   -36.6870    26.8830 h1         1 GIU       0.063700
     27 H8          36.2710   -38.4100    29.4380 ha         1 GIU       0.158000
     28 H9          34.0050   -37.5560    29.4200 h4         1 GIU       0.023100
     29 H10         32.5520   -40.8140    27.3850 h4         1 GIU       0.019100
     30 H11         33.9800   -42.6510    26.6980 ha         1 GIU       0.139000
     31 H12         36.2170   -43.6970    26.5900 ha         1 GIU       0.143000
     32 H13         38.1560   -42.5620    27.5850 ha         1 GIU       0.162000
     33 H14         38.8940   -38.9280    27.1870 hn         1 GIU       0.421800
     34 H15         40.6400   -35.1300    28.3630 hn         1 GIU       0.348800
@<TRIPOS>BOND
     1     1     2 1   
     2     1     4 1   
     3     1    14 1   
     4     1    20 1   
     5     2     3 1   
     6     2    21 1   
     7     2    22 1   
     8     3    15 1   
     9     3    23 1   
    10     3    24 1   
    11     4    15 1   
    12     4    25 1   
    13     4    26 1   
    14     5     6 ar  
    15     5    13 ar  
    16     5    19 1   
    17     6     7 ar  
    18     6    10 ar  
    19     7     8 ar  
    20     7    27 1   
    21     8    16 ar  
    22     8    28 1   
    23     9    10 ar  
    24     9    16 ar  
    25     9    29 1   
    26    10    11 ar  
    27    11    12 ar  
    28    11    30 1   
    29    12    13 ar  
    30    12    31 1   
    31    13    32 1   
    32    14    19 1   
    33    14    33 1   
    34    15    34 1   
    35    17    19 2   
    36    18    19 2   
@<TRIPOS>SUBSTRUCTURE
     1 GIU         1 TEMP              0 ****  ****    0 ROOT
