@<TRIPOS>MOLECULE
GIU
   34    36     1     0     0
SMALL
No Charge or Current Charge


@<TRIPOS>ATOM
      1 C05         39.7020   -37.6640    29.2090 c5         1 GIU       0.176500
      2 C06         40.6850   -38.1980    28.1240 c5         1 GIU      -0.157400
      3 C07         40.3710   -37.2860    26.9160 c5         1 GIU       0.137800
      4 C09         39.4720   -36.1740    28.7580 c5         1 GIU       0.137800
      5 C10         37.0550   -40.6480    28.6940 ca         1 GIU      -0.266500
      6 C11         35.7590   -40.1580    28.3650 ca         1 GIU       0.078000
      7 C12         35.1990   -38.9780    28.9050 ca         1 GIU      -0.152000
      8 C13         33.9120   -38.5760    28.5180 ca         1 GIU       0.342900
      9 C15         33.6810   -40.3890    27.1090 ca         1 GIU       0.369900
     10 C16         34.9650   -40.8690    27.4350 ca         1 GIU      -0.125000
     11 C17         35.4440   -42.0450    26.8330 ca         1 GIU      -0.021000
     12 C18         36.7230   -42.5190    27.1520 ca         1 GIU      -0.145000
     13 C19         37.5230   -41.8290    28.0740 ca         1 GIU       0.019000
     14 N04         38.4170   -38.3940    29.0810 n7         1 GIU      -0.876300
     15 N08         40.3200   -35.9560    27.5500 n7         1 GIU      -0.829400
     16 N14         33.1540   -39.2630    27.6370 nb         1 GIU      -0.663000
     17 O01         39.4280   -40.5460    29.9330 o          1 GIU      -0.545500
     18 O03         37.3940   -39.4890    31.0900 o          1 GIU      -0.545500
     19 S02         38.1470   -39.8360    29.8820 sy         1 GIU       1.140600
     20 H1          40.1120   -37.7220    30.2290 h1         1 GIU       0.091700
     21 H2          40.5600   -39.2600    27.8870 hc         1 GIU       0.067700
     22 H3          41.7250   -38.0690    28.4470 hc         1 GIU       0.067700
     23 H4          39.4070   -37.5420    26.4530 h1         1 GIU       0.059700
     24 H5          41.1460   -37.3430    26.1380 h1         1 GIU       0.059700
     25 H6          39.7330   -35.4670    29.5580 h1         1 GIU       0.063700
     26 H7          38.4130   -36.0020    28.5150 h1         1 GIU       0.063700
     27 H8          35.7290   -38.3510    29.6110 ha         1 GIU       0.140000
     28 H9          33.4710   -37.6680    28.9290 h4         1 GIU       0.023100
     29 H10         33.0520   -40.9230    26.3970 h4         1 GIU       0.019100
     30 H11         34.8300   -42.5890    26.1170 ha         1 GIU       0.121000
     31 H12         37.0960   -43.4280    26.6840 ha         1 GIU       0.125000
     32 H13         38.5100   -42.2270    28.3030 ha         1 GIU       0.144000
     33 H14         38.2180   -38.6270    28.1120 hn         1 GIU       0.477000
     34 H15         41.2720   -35.7250    27.8630 hn         1 GIU       0.404000
@<TRIPOS>BOND
     1     1     2 1   
     2     1     4 1   
     3     1    14 1   
     4     1    20 1   
     5     2     3 1   
     6     2    21 1   
     7     2    22 1   
     8     3    15 1   
     9     3    23 1   
    10     3    24 1   
    11     4    15 1   
    12     4    25 1   
    13     4    26 1   
    14     5     6 ar  
    15     5    13 ar  
    16     5    19 1   
    17     6     7 ar  
    18     6    10 ar  
    19     7     8 ar  
    20     7    27 1   
    21     8    16 ar  
    22     8    28 1   
    23     9    10 ar  
    24     9    16 ar  
    25     9    29 1   
    26    10    11 ar  
    27    11    12 ar  
    28    11    30 1   
    29    12    13 ar  
    30    12    31 1   
    31    13    32 1   
    32    14    19 1   
    33    14    33 1   
    34    15    34 1   
    35    17    19 2   
    36    18    19 2   
@<TRIPOS>SUBSTRUCTURE
     1 GIU         1 TEMP              0 ****  ****    0 ROOT
