@<TRIPOS>MOLECULE
GIV
   24    24     1     0     0
SMALL
No Charge or Current Charge


@<TRIPOS>ATOM
      1 C1          22.4880    41.0920    -4.2230 c6         1 GIV       0.404300
      2 C2          21.1370    40.6100    -3.5790 c6         1 GIV       0.151300
      3 C3          20.6460    39.3210    -4.3110 c6         1 GIV       0.136300
      4 C4          21.7620    38.2330    -4.3260 c6         1 GIV       0.113300
      5 C5          23.0580    38.8660    -4.9430 c6         1 GIV       0.150300
      6 C6          24.2640    37.8710    -5.0100 c3         1 GIV       0.169600
      7 O1          23.0930    42.1370    -3.4880 oh         1 GIV      -0.679000
      8 O3          19.4710    38.7970    -3.6660 oh         1 GIV      -0.704000
      9 O4          21.9550    37.7480    -2.9770 oh         1 GIV      -0.686000
     10 O5          23.4580    40.0410    -4.1920 os         1 GIV      -0.466000
     11 O6          25.4350    38.4440    -5.6260 oh         1 GIV      -0.707000
     12 O2          20.0880    41.6110    -3.6140 oh         1 GIV      -0.710000
     13 H1          22.3210    41.4110    -5.2640 h2         1 GIV       0.020700
     14 H2          21.3580    40.3410    -2.5340 h1         1 GIV       0.087700
     15 HO1         24.0060    41.8000    -3.3630 ho         1 GIV       0.518000
     16 H3          20.4100    39.5840    -5.3540 h1         1 GIV       0.037700
     17 HO2         19.2500    41.0990    -3.5100 ho         1 GIV       0.520000
     18 H4          21.4350    37.4080    -4.9760 h1         1 GIV       0.030700
     19 HO3         19.8310    38.1570    -3.0040 ho         1 GIV       0.506000
     20 H5          22.8360    39.1750    -5.9760 h1         1 GIV       0.046700
     21 HO4         22.5320    36.9510    -3.0230 ho         1 GIV       0.501000
     22 H61         24.5040    37.5440    -3.9900 h1         1 GIV       0.026700
     23 H62         23.9440    36.9840    -5.5730 h1         1 GIV       0.026700
     24 HO6         26.1540    37.7730    -5.5550 ho         1 GIV       0.506000
@<TRIPOS>BOND
     1     1     2 1   
     2     1     7 1   
     3     1    10 1   
     4     1    13 1   
     5     2     3 1   
     6     2    12 1   
     7     2    14 1   
     8     3     4 1   
     9     3     8 1   
    10     3    16 1   
    11     4     5 1   
    12     4     9 1   
    13     4    18 1   
    14     5     6 1   
    15     5    10 1   
    16     5    20 1   
    17     6    11 1   
    18     6    22 1   
    19     6    23 1   
    20     7    15 1   
    21     8    19 1   
    22     9    21 1   
    23    11    24 1   
    24    12    17 1   
@<TRIPOS>SUBSTRUCTURE
     1 GIV         1 TEMP              0 ****  ****    0 ROOT
