@<TRIPOS>MOLECULE
GIV
   24    24     1     0     0
SMALL
bcc


@<TRIPOS>ATOM
      1 C1          22.5300    40.9920    -4.1640 c6         1 GIV       0.357900
      2 C2          21.2380    40.5270    -3.5000 c6         1 GIV       0.128100
      3 C3          20.7560    39.2580    -4.1990 c6         1 GIV       0.113100
      4 C4          21.8460    38.1880    -4.2170 c6         1 GIV       0.090100
      5 C5          23.0920    38.8090    -4.8540 c6         1 GIV       0.127100
      6 C6          24.2620    37.8510    -4.9050 c3         1 GIV       0.146400
      7 O1          23.0320    42.0690    -3.4660 oh         1 GIV      -0.556800
      8 O3          19.5770    38.8450    -3.5540 oh         1 GIV      -0.581800
      9 O4          22.0710    37.7450    -2.9010 oh         1 GIV      -0.563800
     10 O5          23.4840    39.9590    -4.1350 os         1 GIV      -0.419600
     11 O6          25.3020    38.4440    -5.6460 oh         1 GIV      -0.584800
     12 O2          20.2940    41.5620    -3.6160 oh         1 GIV      -0.587800
     13 H1          22.3130    41.2540    -5.2160 h2         1 GIV       0.020700
     14 H2          21.4550    40.3010    -2.4450 h1         1 GIV       0.087700
     15 HO1         23.6920    42.5170    -4.0060 ho         1 GIV       0.419000
     16 H3          20.5540    39.5200    -5.2480 h1         1 GIV       0.037700
     17 HO2         19.4500    41.2260    -3.2970 ho         1 GIV       0.421000
     18 H4          21.5100    37.3630    -4.8630 h1         1 GIV       0.030700
     19 HO3         19.1050    38.2360    -4.1300 ho         1 GIV       0.407000
     20 H5          22.8300    39.0790    -5.8910 h1         1 GIV       0.046700
     21 HO4         22.4940    36.8820    -2.9290 ho         1 GIV       0.402000
     22 H61         24.5840    37.6050    -3.8860 h1         1 GIV       0.026700
     23 H62         23.9120    36.9190    -5.3690 h1         1 GIV       0.026700
     24 HO6         26.0540    37.8450    -5.6400 ho         1 GIV       0.407000
@<TRIPOS>BOND
     1     1     2 1   
     2     1     7 1   
     3     1    10 1   
     4     1    13 1   
     5     2     3 1   
     6     2    12 1   
     7     2    14 1   
     8     3     4 1   
     9     3     8 1   
    10     3    16 1   
    11     4     5 1   
    12     4     9 1   
    13     4    18 1   
    14     5     6 1   
    15     5    10 1   
    16     5    20 1   
    17     6    11 1   
    18     6    22 1   
    19     6    23 1   
    20     7    15 1   
    21     8    19 1   
    22     9    21 1   
    23    11    24 1   
    24    12    17 1   
@<TRIPOS>SUBSTRUCTURE
     1 GIV         1 TEMP              0 ****  ****    0 ROOT
