@<TRIPOS>MOLECULE
GIW
   16    16     1     0     0
SMALL
abcg2


@<TRIPOS>ATOM
      1 C02          1.7340   143.2230    17.2910 c          1 GIW       0.742000
      2 C04          2.7840   143.1240    18.4280 c6         1 GIW       0.098300
      3 C06          4.8540   141.7190    19.5760 c6         1 GIW       0.037100
      4 C07          5.9920   142.3740    18.7920 c6         1 GIW      -0.056400
      5 C08          5.5010   143.3420    17.7200 c6         1 GIW       0.037100
      6 O01          1.3420   142.1380    16.8280 o          1 GIW      -0.694500
      7 O03          1.3650   144.3690    16.9970 o          1 GIW      -0.694500
      8 S05          3.3970   141.4200    18.5350 ss         1 GIW      -0.417000
      9 S09          4.1220   144.3720    18.2860 ss         1 GIW      -0.417000
     10 H1           2.2830   143.3730    19.3690 h2         1 GIW       0.071700
     11 H2           5.1640   140.7530    19.9750 h1         1 GIW       0.059950
     12 H3           4.5550   142.3320    20.4280 h1         1 GIW       0.059950
     13 H4           6.5960   141.6050    18.3040 hc         1 GIW       0.027200
     14 H5           6.6470   142.8960    19.4920 hc         1 GIW       0.027200
     15 H6           5.2000   142.8110    16.8180 h1         1 GIW       0.059950
     16 H7           6.2920   144.0360    17.4340 h1         1 GIW       0.059950
@<TRIPOS>BOND
     1     1     2 1   
     2     1     6 1   
     3     1     7 1   
     4     2     8 1   
     5     2     9 1   
     6     2    10 1   
     7     3     4 1   
     8     3     8 1   
     9     3    11 1   
    10     3    12 1   
    11     4     5 1   
    12     4    13 1   
    13     4    14 1   
    14     5     9 1   
    15     5    15 1   
    16     5    16 1   
@<TRIPOS>SUBSTRUCTURE
     1 GIW         1 TEMP              0 ****  ****    0 ROOT
