@<TRIPOS>MOLECULE
GIW
   16    16     1     0     0
SMALL
No Charge or Current Charge


@<TRIPOS>ATOM
      1 C02          1.7380   143.2860    17.2520 c          1 GIW       0.742000
      2 C04          2.7660   143.2110    18.4400 c6         1 GIW       0.098300
      3 C06          4.8780   141.7940    19.7130 c6         1 GIW       0.037100
      4 C07          6.0020   142.2680    18.7590 c6         1 GIW      -0.056400
      5 C08          5.4940   143.2220    17.6500 c6         1 GIW       0.037100
      6 O01          2.1030   142.9550    16.1280 o          1 GIW      -0.694500
      7 O03          0.6040   143.6760    17.5020 o          1 GIW      -0.694500
      8 S05          3.2840   141.4520    18.8420 ss         1 GIW      -0.417000
      9 S09          4.2030   144.4020    18.2460 ss         1 GIW      -0.417000
     10 H1           2.2230   143.5680    19.3260 h2         1 GIW       0.071700
     11 H2           5.1950   140.8820    20.2370 h1         1 GIW       0.059950
     12 H3           4.6830   142.5640    20.4730 h1         1 GIW       0.059950
     13 H4           6.4800   141.4000    18.2870 hc         1 GIW       0.027200
     14 H5           6.7810   142.7670    19.3510 hc         1 GIW       0.027200
     15 H6           5.0570   142.6400    16.8270 h1         1 GIW       0.059950
     16 H7           6.3360   143.7980    17.2400 h1         1 GIW       0.059950
@<TRIPOS>BOND
     1     1     2 1   
     2     1     6 1   
     3     1     7 1   
     4     2     8 1   
     5     2     9 1   
     6     2    10 1   
     7     3     4 1   
     8     3     8 1   
     9     3    11 1   
    10     3    12 1   
    11     4     5 1   
    12     4    13 1   
    13     4    14 1   
    14     5     9 1   
    15     5    15 1   
    16     5    16 1   
@<TRIPOS>SUBSTRUCTURE
     1 GIW         1 TEMP              0 ****  ****    0 ROOT
