@<TRIPOS>MOLECULE
GIY
   57    60     1     0     0
SMALL
abcg2


@<TRIPOS>ATOM
      1 C10         18.4090    -1.8010     3.8680 cc         1 GIY      -0.263500
      2 C17         14.2680     1.0850     2.1940 c3         1 GIY       0.194500
      3 C24         24.0780     1.5860     2.0300 ca         1 GIY       0.150100
      4 C26         22.1270     1.7720     3.4310 ca         1 GIY      -0.063500
      5 C28         23.2860     1.0490     1.0190 ca         1 GIY      -0.171500
      6 C04         15.9980    -1.3800     3.8270 cc         1 GIY      -0.452500
      7 C05         19.0840     2.4110     2.5150 c3         1 GIY       0.007300
      8 C08         15.6030     1.6330     2.5650 cc         1 GIY       0.161300
      9 C09         16.8220     1.4390     1.9680 cd         1 GIY      -0.146000
     10 C11         19.3600     3.0660     1.1640 c          1 GIY       0.599100
     11 C12         16.5750    -0.9060     4.9670 cd         1 GIY       0.008000
     12 C14         17.9660    -1.1530     4.9900 cd         1 GIY      -0.151000
     13 C18         19.7650    -2.1780     3.4780 ca         1 GIY       0.413500
     14 C19         19.8400     1.0830     2.6300 c3         1 GIY      -0.034100
     15 C23         21.3180     1.2440     2.4250 ca         1 GIY      -0.144300
     16 C27         21.9210     0.8870     1.2270 ca         1 GIY      -0.063500
     17 C29         23.4850     1.9430     3.2440 ca         1 GIY      -0.171500
     18 C31         21.0840    -3.0750     1.8410 ca         1 GIY       0.349900
     19 C32         20.8670    -1.9190     4.2880 ca         1 GIY      -0.138000
     20 C33         26.0500     1.4760     0.7160 c3         1 GIY       0.146900
     21 C34         22.2430    -2.8460     2.5690 ca         1 GIY      -0.158000
     22 C35         22.1250    -2.2570     3.8180 ca         1 GIY      -0.065000
     23 N02         17.6600     2.2090     2.6830 na         1 GIY       0.121800
     24 N03         17.0150     2.8330     3.6590 nd         1 GIY      -0.212800
     25 N07         15.7770     2.4880     3.5950 nc         1 GIY      -0.336000
     26 N13         14.2770    -0.3680     2.0660 n7         1 GIY      -0.898300
     27 N20         19.8770    -2.7480     2.2790 nb         1 GIY      -0.686000
     28 N22         20.1190     4.1660     1.2610 ns         1 GIY      -0.371400
     29 O15         13.6450    -0.6330     4.5450 o          1 GIY      -0.542500
     30 O16         13.8550    -2.6150     3.0070 o          1 GIY      -0.542500
     31 O21         18.9290     2.6090     0.1240 o          1 GIY      -0.562100
     32 O25         20.6350     4.7340     0.1390 oh         1 GIY      -0.418100
     33 S01         14.2980    -1.2980     3.4290 sy         1 GIY       1.192600
     34 S06         17.1240    -2.1310     2.7700 ss         1 GIY       0.410000
     35 H1          13.9730     1.4600     1.2140 h1         1 GIY       0.070200
     36 H2          13.5210     1.4400     2.9070 h1         1 GIY       0.070200
     37 H3          21.6880     2.0500     4.3830 ha         1 GIY       0.118000
     38 H4          23.7080     0.7500     0.0690 ha         1 GIY       0.126500
     39 H5          19.3820     3.0670     3.3360 h1         1 GIY       0.095700
     40 H6          17.1310     0.8350     1.1340 h4         1 GIY       0.189000
     41 H7          16.0370    -0.3980     5.7540 ha         1 GIY       0.161000
     42 H8          18.6080    -0.8450     5.8030 ha         1 GIY       0.135000
     43 H9          19.6320     0.6870     3.6250 hc         1 GIY       0.073700
     44 H10         19.4370     0.3700     1.9090 hc         1 GIY       0.073700
     45 H11         21.3210     0.4640     0.4300 ha         1 GIY       0.118000
     46 H12         24.0990     2.3540     4.0360 ha         1 GIY       0.126500
     47 H13         21.1320    -3.5370     0.8620 h4         1 GIY       0.024100
     48 H14         20.7550    -1.4540     5.2580 ha         1 GIY       0.128000
     49 H15         27.0990     1.7310     0.8460 h1         1 GIY       0.043367
     50 H16         25.9740     0.4110     0.4770 h1         1 GIY       0.043367
     51 H17         25.6500     2.0520    -0.1230 h1         1 GIY       0.043367
     52 H18         23.2070    -3.1230     2.1640 ha         1 GIY       0.127000
     53 H19         23.0020    -2.0580     4.4200 ha         1 GIY       0.124000
     54 H20         13.6020    -0.7300     1.4010 hn         1 GIY       0.492000
     55 H21         20.5630     4.4480     2.1240 hn         1 GIY       0.344500
     56 H22         20.0490     5.4690    -0.0860 ho         1 GIY       0.450000
     57 O30         25.4050     1.7930     1.9320 os         1 GIY      -0.339100
@<TRIPOS>BOND
     1     1    12 2   
     2     1    13 1   
     3     1    34 1   
     4     2     8 1   
     5     2    26 1   
     6     2    35 1   
     7     2    36 1   
     8     3     5 ar  
     9     3    17 ar  
    10     3    57 1   
    11     4    15 ar  
    12     4    17 ar  
    13     4    37 1   
    14     5    16 ar  
    15     5    38 1   
    16     6    11 2   
    17     6    33 1   
    18     6    34 1   
    19     7    10 1   
    20     7    14 1   
    21     7    23 1   
    22     7    39 1   
    23     8     9 2   
    24     8    25 1   
    25     9    23 1   
    26     9    40 1   
    27    10    28 1   
    28    10    31 2   
    29    11    12 1   
    30    11    41 1   
    31    12    42 1   
    32    13    19 ar  
    33    13    27 ar  
    34    14    15 1   
    35    14    43 1   
    36    14    44 1   
    37    15    16 ar  
    38    16    45 1   
    39    17    46 1   
    40    18    21 ar  
    41    18    27 ar  
    42    18    47 1   
    43    19    22 ar  
    44    19    48 1   
    45    20    49 1   
    46    20    50 1   
    47    20    51 1   
    48    20    57 1   
    49    21    22 ar  
    50    21    52 1   
    51    22    53 1   
    52    23    24 1   
    53    24    25 2   
    54    26    33 1   
    55    26    54 1   
    56    28    32 1   
    57    28    55 1   
    58    29    33 2   
    59    30    33 2   
    60    32    56 1   
@<TRIPOS>SUBSTRUCTURE
     1 GIY         1 TEMP              0 ****  ****    0 ROOT
