@<TRIPOS>MOLECULE
GIY
   57    60     1     0     0
SMALL
No Charge or Current Charge


@<TRIPOS>ATOM
      1 C10         18.3880    -1.9230     3.7560 cc         1 GIY      -0.263500
      2 C17         14.1660     1.1170     2.4200 c3         1 GIY       0.194500
      3 C24         24.1400     1.4610     2.0370 ca         1 GIY       0.150100
      4 C26         22.1430     1.6830     3.4190 ca         1 GIY      -0.063500
      5 C28         23.3420     0.9930     0.9710 ca         1 GIY      -0.171500
      6 C04         15.9470    -1.4690     3.7260 cc         1 GIY      -0.452500
      7 C05         19.0600     2.3850     2.4170 c3         1 GIY       0.007300
      8 C08         15.5510     1.6450     2.7400 cc         1 GIY       0.161300
      9 C09         16.7040     1.4370     2.0500 cd         1 GIY      -0.146000
     10 C11         19.2540     3.0390     1.0360 c          1 GIY       0.599100
     11 C12         16.5880    -0.8540     4.7740 cd         1 GIY       0.008000
     12 C14         17.9870    -1.1000     4.7860 cd         1 GIY      -0.151000
     13 C18         19.7950    -2.1880     3.4620 ca         1 GIY       0.413500
     14 C19         19.8430     1.0600     2.5420 c3         1 GIY      -0.034100
     15 C23         21.3460     1.2180     2.3570 ca         1 GIY      -0.144300
     16 C27         21.9510     0.8730     1.1340 ca         1 GIY      -0.063500
     17 C29         23.5330     1.8040     3.2550 ca         1 GIY      -0.171500
     18 C31         21.4060    -2.5920     1.8360 ca         1 GIY       0.349900
     19 C32         20.7820    -2.1370     4.4690 ca         1 GIY      -0.138000
     20 C33         26.2280     1.2660     0.7360 c3         1 GIY       0.146900
     21 C34         22.4450    -2.5450     2.7790 ca         1 GIY      -0.158000
     22 C35         22.1320    -2.3170     4.1260 ca         1 GIY      -0.065000
     23 N02         17.6290     2.2060     2.7230 na         1 GIY       0.121800
     24 N03         17.0360     2.8370     3.7880 nd         1 GIY      -0.212800
     25 N07         15.7710     2.4970     3.7870 nc         1 GIY      -0.336000
     26 N13         14.1300    -0.3360     2.1070 n7         1 GIY      -0.898300
     27 N20         20.1050    -2.4190     2.1650 nb         1 GIY      -0.686000
     28 N22         19.8990     4.2740     1.0460 ns         1 GIY      -0.371400
     29 O15         13.4820    -0.8570     4.4820 o          1 GIY      -0.542500
     30 O16         13.8640    -2.7100     2.7530 o          1 GIY      -0.542500
     31 O21         18.8520     2.5260    -0.0030 o          1 GIY      -0.562100
     32 O25         20.3600     4.8820    -0.1860 oh         1 GIY      -0.418100
     33 S01         14.2260    -1.4290     3.3590 sy         1 GIY       1.192600
     34 S06         17.0470    -2.3740     2.7100 ss         1 GIY       0.410000
     35 H1          13.8110     1.6840     1.5480 h1         1 GIY       0.070200
     36 H2          13.4840     1.3690     3.2450 h1         1 GIY       0.070200
     37 H3          21.6890     1.9450     4.3730 ha         1 GIY       0.118000
     38 H4          23.7790     0.7180     0.0160 ha         1 GIY       0.126500
     39 H5          19.4660     3.0790     3.1630 h1         1 GIY       0.095700
     40 H6          16.9180     0.8470     1.1690 h4         1 GIY       0.189000
     41 H7          16.0840    -0.2290     5.5090 ha         1 GIY       0.161000
     42 H8          18.6510    -0.6560     5.5200 ha         1 GIY       0.135000
     43 H9          19.6520     0.6470     3.5380 hc         1 GIY       0.073700
     44 H10         19.4420     0.3330     1.8250 hc         1 GIY       0.073700
     45 H11         21.3440     0.5070     0.3080 ha         1 GIY       0.118000
     46 H12         24.1460     2.1620     4.0790 ha         1 GIY       0.126500
     47 H13         21.6200    -2.7690     0.7830 h4         1 GIY       0.024100
     48 H14         20.5090    -1.9570     5.5040 ha         1 GIY       0.128000
     49 H15         27.3020     1.4470     0.8730 h1         1 GIY       0.043367
     50 H16         26.0920     0.2080     0.4780 h1         1 GIY       0.043367
     51 H17         25.8850     1.8810    -0.1060 h1         1 GIY       0.043367
     52 H18         23.4750    -2.6850     2.4610 ha         1 GIY       0.127000
     53 H19         22.9120    -2.2760     4.8840 ha         1 GIY       0.124000
     54 H20         13.1950    -0.5660     1.7730 hn         1 GIY       0.492000
     55 H21         20.3500     4.5990     1.9010 hn         1 GIY       0.344500
     56 H22         20.0130     5.8050    -0.1350 ho         1 GIY       0.450000
     57 O30         25.5100     1.5970     1.9380 os         1 GIY      -0.339100
@<TRIPOS>BOND
     1     1    12 2   
     2     1    13 1   
     3     1    34 1   
     4     2     8 1   
     5     2    26 1   
     6     2    35 1   
     7     2    36 1   
     8     3     5 ar  
     9     3    17 ar  
    10     3    57 1   
    11     4    15 ar  
    12     4    17 ar  
    13     4    37 1   
    14     5    16 ar  
    15     5    38 1   
    16     6    11 2   
    17     6    33 1   
    18     6    34 1   
    19     7    10 1   
    20     7    14 1   
    21     7    23 1   
    22     7    39 1   
    23     8     9 2   
    24     8    25 1   
    25     9    23 1   
    26     9    40 1   
    27    10    28 1   
    28    10    31 2   
    29    11    12 1   
    30    11    41 1   
    31    12    42 1   
    32    13    19 ar  
    33    13    27 ar  
    34    14    15 1   
    35    14    43 1   
    36    14    44 1   
    37    15    16 ar  
    38    16    45 1   
    39    17    46 1   
    40    18    21 ar  
    41    18    27 ar  
    42    18    47 1   
    43    19    22 ar  
    44    19    48 1   
    45    20    49 1   
    46    20    50 1   
    47    20    51 1   
    48    20    57 1   
    49    21    22 ar  
    50    21    52 1   
    51    22    53 1   
    52    23    24 1   
    53    24    25 2   
    54    26    33 1   
    55    26    54 1   
    56    28    32 1   
    57    28    55 1   
    58    29    33 2   
    59    30    33 2   
    60    32    56 1   
@<TRIPOS>SUBSTRUCTURE
     1 GIY         1 TEMP              0 ****  ****    0 ROOT
