@<TRIPOS>MOLECULE
GIZ
   68    71     1     0     0
SMALL
No Charge or Current Charge


@<TRIPOS>ATOM
      1 C13         44.0670   -38.4080    31.0520 c6         1 GIZ       0.154300
      2 C14         40.5250   -39.4630    30.1360 cc         1 GIZ       0.726300
      3 C16         38.4890   -39.8870    29.3730 cd         1 GIZ       0.415500
      4 C19         37.1330   -39.5260    29.0030 cd         1 GIZ      -0.223500
      5 N20         36.6940   -38.2220    29.1810 na         1 GIZ      -0.077000
      6 C21         35.3650   -38.1140    28.7990 cd         1 GIZ      -0.072300
      7 C23         34.9650   -39.3650    28.3550 cc         1 GIZ      -0.261600
      8 C24         33.5520   -39.6110    27.8650 c          1 GIZ       0.614700
      9 C26         33.0590   -40.9850    27.4070 c3         1 GIZ      -0.190100
     10 C30         47.4610   -35.6160    32.2920 c6         1 GIZ      -0.091400
     11 C31         47.4900   -34.6660    33.5130 c6         1 GIZ       0.171800
     12 C01         49.3910   -35.8980    36.6630 c3         1 GIZ      -0.092100
     13 C04         47.1580   -36.7910    34.7980 c6         1 GIZ       0.171800
     14 C05         45.9100   -36.9070    33.8920 c6         1 GIZ      -0.091400
     15 C06         46.2780   -36.6310    32.3980 c6         1 GIZ      -0.059700
     16 C07         45.0330   -36.1630    31.5790 c3         1 GIZ       0.170800
     17 C09         42.6480   -36.4260    30.9920 c6         1 GIZ       0.154300
     18 C10         41.3620   -37.3020    31.1110 c6         1 GIZ       0.215800
     19 C12         42.8160   -39.3370    31.1650 c6         1 GIZ       0.215800
     20 C17         39.0050   -41.1640    29.3130 cc         1 GIZ      -0.276000
     21 C22         34.6220   -36.8020    28.9090 c3         1 GIZ      -0.031800
     22 C27         36.0930   -40.2700    28.4660 cc         1 GIZ      -0.066300
     23 N03         47.7360   -35.4050    34.7940 n3         1 GIZ      -0.728600
     24 N08         43.8420   -37.0490    31.6380 n3         1 GIZ      -0.716600
     25 N11         41.5690   -38.7060    30.6280 nh         1 GIZ      -0.758300
     26 N15         39.3570   -38.9190    29.8530 nd         1 GIZ      -0.771000
     27 O25         32.7280   -38.7040    27.8220 o          1 GIZ      -0.565100
     28 S18         40.6580   -41.1840    29.8470 ss         1 GIZ      -0.104400
     29 H1          44.9030   -38.9150    31.5540 h1         1 GIZ       0.043950
     30 H2          44.3380   -38.3180    29.9900 h1         1 GIZ       0.043950
     31 H3          37.2670   -37.4700    29.5530 hn         1 GIZ       0.365000
     32 H4          31.9740   -41.0010    27.2550 hc         1 GIZ       0.056700
     33 H5          33.5590   -41.2410    26.4680 hc         1 GIZ       0.056700
     34 H6          33.3670   -41.7590    28.1120 hc         1 GIZ       0.056700
     35 H7          37.0890   -41.9600    27.5880 hc         1 GIZ       0.045700
     36 H8          35.4420   -41.9250    27.2180 hc         1 GIZ       0.045700
     37 H9          48.4150   -36.1580    32.2350 hc         1 GIZ       0.049200
     38 H10         47.3900   -35.0330    31.3630 hc         1 GIZ       0.049200
     39 H11         48.2510   -33.8870    33.3560 h1         1 GIZ       0.039700
     40 H12         46.5220   -34.1450    33.5680 h1         1 GIZ       0.039700
     41 H13         50.4380   -35.7460    36.9510 hc         1 GIZ       0.036700
     42 H14         48.7570   -35.3720    37.3860 hc         1 GIZ       0.036700
     43 H15         49.1770   -36.9710    36.7240 hc         1 GIZ       0.036700
     44 H16         49.7820   -35.9230    34.5380 h1         1 GIZ       0.025700
     45 H17         49.5030   -34.3180    35.2180 h1         1 GIZ       0.025700
     46 H18         46.8890   -37.0850    35.8230 h1         1 GIZ       0.039700
     47 H19         47.9050   -37.5180    34.4440 h1         1 GIZ       0.039700
     48 H20         45.1480   -36.1970    34.2400 hc         1 GIZ       0.049200
     49 H21         45.4680   -37.9070    33.9900 hc         1 GIZ       0.049200
     50 H22         46.6230   -37.5680    31.9420 hc         1 GIZ       0.042700
     51 H23         45.3420   -36.0320    30.5330 h1         1 GIZ       0.033700
     52 H24         44.7570   -35.1680    31.9550 h1         1 GIZ       0.033700
     53 H25         42.8480   -36.2480    29.9250 h1         1 GIZ       0.043950
     54 H26         42.4390   -35.4450    31.4440 h1         1 GIZ       0.043950
     55 H27         41.0450   -37.3200    32.1640 h1         1 GIZ       0.056700
     56 H28         40.5640   -36.7980    30.5470 h1         1 GIZ       0.056700
     57 H29         42.6680   -39.5980    32.2230 h1         1 GIZ       0.056700
     58 H30         43.0530   -40.2700    30.6350 h1         1 GIZ       0.056700
     59 H31         38.5580   -42.0970    29.0220 h4         1 GIZ       0.166000
     60 H32         33.7540   -36.8930    29.5730 hc         1 GIZ       0.055700
     61 H33         35.2620   -36.0090    29.3150 hc         1 GIZ       0.055700
     62 H34         34.2670   -36.4640    27.9280 hc         1 GIZ       0.055700
     63 H35         35.8710   -43.7410    28.8470 hc         1 GIZ       0.034367
     64 H36         36.5690   -42.5920    30.0080 hc         1 GIZ       0.034367
     65 H37         34.8440   -42.5250    29.6360 hc         1 GIZ       0.034367
     66 C28         36.1230   -41.7260    28.0440 c3         1 GIZ      -0.012100
     67 C02         49.1510   -35.3590    35.2380 c3         1 GIZ       0.173800
     68 C29         35.8340   -42.7050    29.2030 c3         1 GIZ      -0.089100
@<TRIPOS>BOND
     1     1    19 1   
     2     1    24 1   
     3     1    29 1   
     4     1    30 1   
     5     2    25 1   
     6     2    26 2   
     7     2    28 1   
     8     3     4 1   
     9     3    20 2   
    10     3    26 1   
    11     4     5 1   
    12     4    22 2   
    13     5     6 1   
    14     5    31 1   
    15     6     7 2   
    16     6    21 1   
    17     7     8 1   
    18     7    22 1   
    19     8     9 1   
    20     8    27 2   
    21     9    32 1   
    22     9    33 1   
    23     9    34 1   
    24    10    11 1   
    25    10    15 1   
    26    10    37 1   
    27    10    38 1   
    28    11    23 1   
    29    11    39 1   
    30    11    40 1   
    31    12    41 1   
    32    12    42 1   
    33    12    43 1   
    34    12    67 1   
    35    13    14 1   
    36    13    23 1   
    37    13    46 1   
    38    13    47 1   
    39    14    15 1   
    40    14    48 1   
    41    14    49 1   
    42    15    16 1   
    43    15    50 1   
    44    16    24 1   
    45    16    51 1   
    46    16    52 1   
    47    17    18 1   
    48    17    24 1   
    49    17    53 1   
    50    17    54 1   
    51    18    25 1   
    52    18    55 1   
    53    18    56 1   
    54    19    25 1   
    55    19    57 1   
    56    19    58 1   
    57    20    28 1   
    58    20    59 1   
    59    21    60 1   
    60    21    61 1   
    61    21    62 1   
    62    22    66 1   
    63    23    67 1   
    64    35    66 1   
    65    36    66 1   
    66    44    67 1   
    67    45    67 1   
    68    63    68 1   
    69    64    68 1   
    70    65    68 1   
    71    66    68 1   
@<TRIPOS>SUBSTRUCTURE
     1 GIZ         1 TEMP              0 ****  ****    0 ROOT
