@<TRIPOS>MOLECULE
GIZ
   68    71     1     0     0
SMALL
abcg2


@<TRIPOS>ATOM
      1 C13         44.1220   -38.4770    30.9400 c6         1 GIZ       0.154300
      2 C14         40.6730   -39.5090    30.1710 cc         1 GIZ       0.726300
      3 C16         38.6260   -40.0380    29.5080 cd         1 GIZ       0.415500
      4 C19         37.2690   -39.6270    29.1930 cd         1 GIZ      -0.223500
      5 N20         36.8750   -38.3600    29.5440 na         1 GIZ      -0.077000
      6 C21         35.6050   -38.1250    29.1950 cd         1 GIZ      -0.072300
      7 C23         35.1270   -39.2860    28.5780 cc         1 GIZ      -0.261600
      8 C24         33.7610   -39.3780    28.0680 c          1 GIZ       0.614700
      9 C26         33.2920   -40.6370    27.3830 c3         1 GIZ      -0.190100
     10 C30         47.3210   -35.6670    32.2450 c6         1 GIZ      -0.091400
     11 C31         47.2190   -34.7160    33.4300 c6         1 GIZ       0.171800
     12 C01         48.9070   -35.8290    36.6260 c3         1 GIZ      -0.092100
     13 C04         46.8270   -36.7350    34.7230 c6         1 GIZ       0.171800
     14 C05         45.6800   -36.8660    33.7340 c6         1 GIZ      -0.091400
     15 C06         46.1820   -36.7060    32.2930 c6         1 GIZ      -0.059700
     16 C07         45.0600   -36.2920    31.3470 c3         1 GIZ       0.170800
     17 C09         42.7710   -36.5530    30.6880 c6         1 GIZ       0.154300
     18 C10         41.5030   -37.3600    30.8840 c6         1 GIZ       0.215800
     19 C12         42.9000   -39.3520    31.1410 c6         1 GIZ       0.215800
     20 C17         39.1550   -41.2910    29.4860 cc         1 GIZ      -0.276000
     21 C22         34.9740   -36.8090    29.4820 c3         1 GIZ      -0.031800
     22 C27         36.2030   -40.2410    28.5740 cc         1 GIZ      -0.066300
     23 N03         47.3920   -35.3870    34.7160 n3         1 GIZ      -0.728600
     24 N08         43.8800   -37.1330    31.4200 n3         1 GIZ      -0.716600
     25 N11         41.7320   -38.7510    30.5270 nh         1 GIZ      -0.758300
     26 N15         39.4890   -39.0450    29.9080 nd         1 GIZ      -0.771000
     27 O25         32.9860   -38.4400    28.1850 o          1 GIZ      -0.565100
     28 S18         40.8130   -41.2410    29.9730 ss         1 GIZ      -0.104400
     29 H1          44.9460   -38.9290    31.4940 h1         1 GIZ       0.043950
     30 H2          44.4040   -38.4840    29.8720 h1         1 GIZ       0.043950
     31 H3          37.4850   -37.6980    30.0010 hn         1 GIZ       0.365000
     32 H4          32.2310   -40.5580    27.1530 hc         1 GIZ       0.056700
     33 H5          33.8340   -40.7970    26.4500 hc         1 GIZ       0.056700
     34 H6          33.4490   -41.5190    28.0040 hc         1 GIZ       0.056700
     35 H7          37.2470   -41.8540    27.6780 hc         1 GIZ       0.045700
     36 H8          35.6040   -41.7240    27.1530 hc         1 GIZ       0.045700
     37 H9          48.2920   -36.1680    32.2680 hc         1 GIZ       0.049200
     38 H10         47.2930   -35.1050    31.3060 hc         1 GIZ       0.049200
     39 H11         47.9640   -33.9220    33.3510 h1         1 GIZ       0.039700
     40 H12         46.2460   -34.2120    33.4040 h1         1 GIZ       0.039700
     41 H13         49.9410   -35.7140    36.9550 hc         1 GIZ       0.036700
     42 H14         48.2760   -35.2300    37.2830 hc         1 GIZ       0.036700
     43 H15         48.6390   -36.8770    36.7640 hc         1 GIZ       0.036700
     44 H16         49.4210   -36.0030    34.5480 h1         1 GIZ       0.025700
     45 H17         49.1440   -34.3550    35.0990 h1         1 GIZ       0.025700
     46 H18         46.4820   -36.9860    35.7300 h1         1 GIZ       0.039700
     47 H19         47.5930   -37.4890    34.4680 h1         1 GIZ       0.039700
     48 H20         44.9160   -36.1160    33.9590 hc         1 GIZ       0.049200
     49 H21         45.1990   -37.8370    33.8650 hc         1 GIZ       0.049200
     50 H22         46.5950   -37.6660    31.9690 hc         1 GIZ       0.042700
     51 H23         45.4550   -36.2410    30.3170 h1         1 GIZ       0.033700
     52 H24         44.7520   -35.2730    31.6100 h1         1 GIZ       0.033700
     53 H25         42.9890   -36.4760    29.6090 h1         1 GIZ       0.043950
     54 H26         42.5900   -35.5400    31.0520 h1         1 GIZ       0.043950
     55 H27         41.1700   -37.2870    31.9270 h1         1 GIZ       0.056700
     56 H28         40.7130   -36.9560    30.2550 h1         1 GIZ       0.056700
     57 H29         42.7310   -39.5140    32.2130 h1         1 GIZ       0.056700
     58 H30         43.1030   -40.3230    30.6870 h1         1 GIZ       0.056700
     59 H31         38.6860   -42.2330    29.2620 h4         1 GIZ       0.166000
     60 H32         34.1180   -36.9110    30.1470 hc         1 GIZ       0.055700
     61 H33         35.6930   -36.1420    29.9570 hc         1 GIZ       0.055700
     62 H34         34.6170   -36.3290    28.5720 hc         1 GIZ       0.055700
     63 H35         35.8860   -43.6950    28.6320 hc         1 GIZ       0.034367
     64 H36         36.4750   -42.6680    29.9390 hc         1 GIZ       0.034367
     65 H37         34.8060   -42.5400    29.4080 hc         1 GIZ       0.034367
     66 C28         36.2370   -41.6370    28.0340 c3         1 GIZ      -0.012100
     67 C02         48.7670   -35.3770    35.1810 c3         1 GIZ       0.173800
     68 C29         35.8280   -42.6940    29.0610 c3         1 GIZ      -0.089100
@<TRIPOS>BOND
     1     1    19 1   
     2     1    24 1   
     3     1    29 1   
     4     1    30 1   
     5     2    25 1   
     6     2    26 2   
     7     2    28 1   
     8     3     4 1   
     9     3    20 2   
    10     3    26 1   
    11     4     5 1   
    12     4    22 2   
    13     5     6 1   
    14     5    31 1   
    15     6     7 2   
    16     6    21 1   
    17     7     8 1   
    18     7    22 1   
    19     8     9 1   
    20     8    27 2   
    21     9    32 1   
    22     9    33 1   
    23     9    34 1   
    24    10    11 1   
    25    10    15 1   
    26    10    37 1   
    27    10    38 1   
    28    11    23 1   
    29    11    39 1   
    30    11    40 1   
    31    12    41 1   
    32    12    42 1   
    33    12    43 1   
    34    12    67 1   
    35    13    14 1   
    36    13    23 1   
    37    13    46 1   
    38    13    47 1   
    39    14    15 1   
    40    14    48 1   
    41    14    49 1   
    42    15    16 1   
    43    15    50 1   
    44    16    24 1   
    45    16    51 1   
    46    16    52 1   
    47    17    18 1   
    48    17    24 1   
    49    17    53 1   
    50    17    54 1   
    51    18    25 1   
    52    18    55 1   
    53    18    56 1   
    54    19    25 1   
    55    19    57 1   
    56    19    58 1   
    57    20    28 1   
    58    20    59 1   
    59    21    60 1   
    60    21    61 1   
    61    21    62 1   
    62    22    66 1   
    63    23    67 1   
    64    35    66 1   
    65    36    66 1   
    66    44    67 1   
    67    45    67 1   
    68    63    68 1   
    69    64    68 1   
    70    65    68 1   
    71    66    68 1   
@<TRIPOS>SUBSTRUCTURE
     1 GIZ         1 TEMP              0 ****  ****    0 ROOT
