@<TRIPOS>MOLECULE
GJ0
   37    38     1     0     0
SMALL
No Charge or Current Charge


@<TRIPOS>ATOM
      1 C10        123.0380   163.8790   121.4210 ca         1 GJ0      -0.160000
      2 N12        124.9150   163.9120   119.8960 ns         1 GJ0      -0.153000
      3 C2         123.0140   158.6110   126.5770 ca         1 GJ0       0.080000
      4 C3         123.7710   159.7600   126.2770 ca         1 GJ0       0.184000
      5 C5         123.3240   160.6680   125.3040 ca         1 GJ0      -0.210000
      6 C6         122.1170   160.4240   124.6210 ca         1 GJ0       0.191100
      7 C8         122.4840   161.9200   122.7540 ca         1 GJ0       0.009100
      8 C9         122.2170   163.2420   122.3680 ca         1 GJ0      -0.081500
      9 C11        124.1320   163.2030   120.8470 ca         1 GJ0       0.028000
     10 C13        126.1050   163.6040   119.2480 c          1 GJ0       0.627100
     11 C14        126.6060   164.7000   118.2940 c3         1 GJ0      -0.120400
     12 C15        126.3900   164.3280   116.8050 c3         1 GJ0       0.021500
     13 C17        127.2820   163.0780   116.3740 c          1 GJ0       0.730000
     14 C21        124.3840   161.8660   121.2260 ca         1 GJ0      -0.160000
     15 C22        123.5630   161.2270   122.1730 ca         1 GJ0      -0.081500
     16 C23        121.3530   159.2800   124.9300 ca         1 GJ0      -0.066900
     17 C25        121.8030   158.3710   125.9060 ca         1 GJ0      -0.074000
     18 N16        124.9140   164.2880   116.5030 n8         1 GJ0      -1.011200
     19 O7         121.6580   161.3130   123.6740 os         1 GJ0      -0.221200
     20 O18        128.4970   163.2230   116.3450 o          1 GJ0      -0.719000
     21 O19        126.7250   162.0540   115.9940 o          1 GJ0      -0.719000
     22 O20        126.7530   162.5820   119.4490 o          1 GJ0      -0.540100
     23 Br         119.6990   158.9360   124.0230 br         1 GJ0      -0.069100
     24 H1         122.8220   164.9060   121.1350 ha         1 GJ0       0.139000
     25 H2         124.5270   164.8090   119.6360 hn         1 GJ0       0.143000
     26 H3         123.9100   161.5560   125.0870 ha         1 GJ0       0.160000
     27 H4         121.3750   163.7750   122.8050 ha         1 GJ0       0.121000
     28 H5         127.6790   164.8510   118.4610 hc         1 GJ0       0.045200
     29 H6         126.0730   165.6390   118.4920 hc         1 GJ0       0.045200
     30 H7         126.7780   165.1660   116.2100 h1         1 GJ0       0.006700
     31 H8         125.2020   161.2990   120.7930 ha         1 GJ0       0.139000
     32 H9         123.7640   160.1930   122.4450 ha         1 GJ0       0.121000
     33 H10        121.2190   157.4850   126.1420 ha         1 GJ0       0.142000
     34 H11        124.5310   165.2410   116.5210 hn         1 GJ0       0.388000
     35 H12        124.7820   163.9910   115.5280 hn         1 GJ0       0.388000
     36 F1         123.4420   157.7340   127.5150 f          1 GJ0      -0.166000
     37 F4         124.9330   160.0000   126.9260 f          1 GJ0      -0.157000
@<TRIPOS>BOND
     1     1     8 ar  
     2     1     9 ar  
     3     1    24 1   
     4     2     9 1   
     5     2    10 1   
     6     2    25 1   
     7     3     4 ar  
     8     3    17 ar  
     9     3    36 1   
    10     4     5 ar  
    11     4    37 1   
    12     5     6 ar  
    13     5    26 1   
    14     6    16 ar  
    15     6    19 1   
    16     7     8 ar  
    17     7    15 ar  
    18     7    19 1   
    19     8    27 1   
    20     9    14 ar  
    21    10    11 1   
    22    10    22 2   
    23    11    12 1   
    24    11    28 1   
    25    11    29 1   
    26    12    13 1   
    27    12    18 1   
    28    12    30 1   
    29    13    20 1   
    30    13    21 1   
    31    14    15 ar  
    32    14    31 1   
    33    15    32 1   
    34    16    17 ar  
    35    16    23 1   
    36    17    33 1   
    37    18    34 1   
    38    18    35 1   
@<TRIPOS>SUBSTRUCTURE
     1 GJ0         1 TEMP              0 ****  ****    0 ROOT
