@<TRIPOS>MOLECULE
GJ0
   37    38     1     0     0
SMALL
abcg2


@<TRIPOS>ATOM
      1 C10        123.1860   163.5450   121.6610 ca         1 GJ0      -0.160000
      2 N12        124.8170   163.7950   119.9420 ns         1 GJ0      -0.153000
      3 C2         123.0150   159.2410   126.8780 ca         1 GJ0       0.080000
      4 C3         123.8340   160.0430   126.1060 ca         1 GJ0       0.184000
      5 C5         123.4110   160.5270   124.8860 ca         1 GJ0      -0.210000
      6 C6         122.1400   160.2050   124.4210 ca         1 GJ0       0.191100
      7 C8         122.4540   161.4020   122.4240 ca         1 GJ0       0.009100
      8 C9         122.3920   162.7840   122.4990 ca         1 GJ0      -0.081500
      9 C11        124.0520   162.9450   120.7410 ca         1 GJ0       0.028000
     10 C13        125.8760   163.4980   119.1370 c          1 GJ0       0.627100
     11 C14        126.5180   164.7000   118.4840 c3         1 GJ0      -0.120400
     12 C15        126.4760   164.5870   116.9590 c3         1 GJ0       0.021500
     13 C17        127.4650   163.5200   116.4180 c          1 GJ0       0.730000
     14 C21        124.0890   161.5500   120.6690 ca         1 GJ0      -0.160000
     15 C22        123.2930   160.7880   121.5130 ca         1 GJ0      -0.081500
     16 C23        121.3160   159.3980   125.2060 ca         1 GJ0      -0.066900
     17 C25        121.7520   158.9170   126.4310 ca         1 GJ0      -0.074000
     18 N16        125.1090   164.3340   116.5330 n8         1 GJ0      -1.011200
     19 O7         121.6490   160.6370   123.2420 os         1 GJ0      -0.221200
     20 O18        128.6280   163.5900   116.8570 o          1 GJ0      -0.719000
     21 O19        127.0330   162.7310   115.5550 o          1 GJ0      -0.719000
     22 O20        126.2850   162.3640   118.9640 o          1 GJ0      -0.540100
     23 BR         119.5960   158.9580   124.5970 br         1 GJ0      -0.069100
     24 H1         123.1370   164.6250   121.7280 ha         1 GJ0       0.139000
     25 H2         124.5850   164.7730   120.0190 hn         1 GJ0       0.143000
     26 H3         124.0810   161.1530   124.3110 ha         1 GJ0       0.160000
     27 H4         121.7320   163.2670   123.2070 ha         1 GJ0       0.121000
     28 H5         127.5560   164.7640   118.8170 hc         1 GJ0       0.045200
     29 H6         126.0280   165.6250   118.7980 hc         1 GJ0       0.045200
     30 H7         126.8590   165.5450   116.5730 h1         1 GJ0       0.006700
     31 H8         124.7310   161.0490   119.9640 ha         1 GJ0       0.139000
     32 H9         123.3320   159.7080   121.4510 ha         1 GJ0       0.121000
     33 H10        121.1150   158.2910   127.0430 ha         1 GJ0       0.142000
     34 H11        124.6000   165.2040   116.4490 hn         1 GJ0       0.388000
     35 H12        125.1370   163.9090   115.6160 hn         1 GJ0       0.388000
     36 F1         123.4520   158.7870   128.0550 f          1 GJ0      -0.166000
     37 F4         125.0510   160.3530   126.5510 f          1 GJ0      -0.157000
@<TRIPOS>BOND
     1     1     8 ar  
     2     1     9 ar  
     3     1    24 1   
     4     2     9 1   
     5     2    10 1   
     6     2    25 1   
     7     3     4 ar  
     8     3    17 ar  
     9     3    36 1   
    10     4     5 ar  
    11     4    37 1   
    12     5     6 ar  
    13     5    26 1   
    14     6    16 ar  
    15     6    19 1   
    16     7     8 ar  
    17     7    15 ar  
    18     7    19 1   
    19     8    27 1   
    20     9    14 ar  
    21    10    11 1   
    22    10    22 2   
    23    11    12 1   
    24    11    28 1   
    25    11    29 1   
    26    12    13 1   
    27    12    18 1   
    28    12    30 1   
    29    13    20 1   
    30    13    21 1   
    31    14    15 ar  
    32    14    31 1   
    33    15    32 1   
    34    16    17 ar  
    35    16    23 1   
    36    17    33 1   
    37    18    34 1   
    38    18    35 1   
@<TRIPOS>SUBSTRUCTURE
     1 GJ0         1 TEMP              0 ****  ****    0 ROOT
