@<TRIPOS>MOLECULE
GJ1
   36    37     1     0     0
SMALL
No Charge or Current Charge


@<TRIPOS>ATOM
      1 C7           1.6260    -0.1270     0.0100 ca         1 GJ1       0.108100
      2 C6           2.1690     1.0910     0.4780 ca         1 GJ1      -0.157000
      3 C5           3.5550     1.3190     0.4220 ca         1 GJ1      -0.164000
      4 C4           4.4140     0.3290    -0.1030 ca         1 GJ1       0.109100
      5 C2           2.4840    -1.1180    -0.5160 ca         1 GJ1      -0.066300
      6 C13         -2.3910    -1.2640     1.1190 ca         1 GJ1      -0.135000
      7 C11         -0.6880     0.5570     0.5790 c3         1 GJ1       0.112300
      8 C1           1.9220    -2.4410    -1.0260 c3         1 GJ1      -0.036800
      9 C3           3.8730    -0.8800    -0.5670 ca         1 GJ1      -0.113000
     10 O8           5.7810     0.4970    -0.1830 os         1 GJ1      -0.342100
     11 C9           6.4350     1.6990     0.2650 c3         1 GJ1       0.148900
     12 O10          0.2680    -0.3860     0.0490 os         1 GJ1      -0.351100
     13 C12         -2.0970    -0.0320     0.5010 ca         1 GJ1       0.350300
     14 C14         -3.6930    -1.7830     1.0380 ca         1 GJ1      -0.082000
     15 C15         -4.6580    -1.0410     0.3390 ca         1 GJ1      -0.132000
     16 C16         -4.2950     0.1860    -0.2500 ca         1 GJ1       0.351300
     17 N17         -3.0340     0.6850    -0.1720 nb         1 GJ1      -0.697000
     18 C18         -5.3330     1.0150    -1.0250 c3         1 GJ1       0.109300
     19 O19         -6.3790     1.5300    -0.1730 oh         1 GJ1      -0.663000
     20 H1           1.5330     1.8710     0.8870 ha         1 GJ1       0.118000
     21 H2           3.9430     2.2650     0.7890 ha         1 GJ1       0.117000
     22 H4          -0.4630     0.7840     1.6290 h1         1 GJ1       0.053700
     23 H5          -0.6520     1.4970     0.0120 h1         1 GJ1       0.053700
     24 H6           1.2140    -2.2750    -1.8470 hc         1 GJ1       0.044367
     25 H7           2.7110    -3.1040    -1.3990 hc         1 GJ1       0.044367
     26 H8           1.3910    -2.9740    -0.2280 hc         1 GJ1       0.044367
     27 H9           4.5410    -1.6370    -0.9700 ha         1 GJ1       0.128000
     28 H10          6.0730     2.5710    -0.2930 h1         1 GJ1       0.039033
     29 H11          6.2550     1.8650     1.3350 h1         1 GJ1       0.039033
     30 H12          7.5180     1.6220     0.1110 h1         1 GJ1       0.039033
     31 H13         -3.9470    -2.7330     1.5050 ha         1 GJ1       0.119000
     32 H14         -5.6790    -1.4040     0.2530 ha         1 GJ1       0.142000
     33 H15         -4.8230     1.8430    -1.5350 h1         1 GJ1       0.040700
     34 H16         -5.7660     0.3760    -1.8070 h1         1 GJ1       0.040700
     35 H17         -6.9780     2.0670    -0.7400 ho         1 GJ1       0.451000
     36 H3          -1.6130    -1.8060     1.6500 ha         1 GJ1       0.139000
@<TRIPOS>BOND
     1     1     2 ar  
     2     1     5 ar  
     3     1    12 1   
     4     2     3 ar  
     5     2    20 1   
     6     3     4 ar  
     7     3    21 1   
     8     4     9 ar  
     9     4    10 1   
    10     5     8 1   
    11     5     9 ar  
    12     6    13 ar  
    13     6    14 ar  
    14     6    36 1   
    15     7    12 1   
    16     7    13 1   
    17     7    22 1   
    18     7    23 1   
    19     8    24 1   
    20     8    25 1   
    21     8    26 1   
    22     9    27 1   
    23    10    11 1   
    24    11    28 1   
    25    11    29 1   
    26    11    30 1   
    27    13    17 ar  
    28    14    15 ar  
    29    14    31 1   
    30    15    16 ar  
    31    15    32 1   
    32    16    17 ar  
    33    16    18 1   
    34    18    19 1   
    35    18    33 1   
    36    18    34 1   
    37    19    35 1   
@<TRIPOS>SUBSTRUCTURE
     1 GJ1         1 TEMP              0 ****  ****    0 ROOT
