@<TRIPOS>MOLECULE
GJ1
   36    37     1     0     0
SMALL
abcg2


@<TRIPOS>ATOM
      1 C7           1.6240    -0.1760    -0.0060 ca         1 GJ1       0.108100
      2 C6           2.0920     1.1270    -0.0060 ca         1 GJ1      -0.157000
      3 C5           3.4610     1.3930     0.0140 ca         1 GJ1      -0.164000
      4 C4           4.3670     0.3450     0.0340 ca         1 GJ1       0.109100
      5 C2           2.5310    -1.2480     0.0150 ca         1 GJ1      -0.066300
      6 C13         -2.2580    -1.4770    -0.0050 ca         1 GJ1      -0.135000
      7 C11         -0.6520     0.5010    -0.0220 c3         1 GJ1       0.112300
      8 C1           2.0370    -2.6640     0.0100 c3         1 GJ1      -0.036800
      9 C3           3.8850    -0.9670     0.0350 ca         1 GJ1      -0.113000
     10 O8           5.7120     0.4860     0.0520 os         1 GJ1      -0.342100
     11 C9           6.2400     1.7960     0.0490 c3         1 GJ1       0.148900
     12 O10          0.3120    -0.5170    -0.0260 os         1 GJ1      -0.351100
     13 C12         -2.0270    -0.1080    -0.0160 ca         1 GJ1       0.350300
     14 C14         -3.5750    -1.9110     0.0000 ca         1 GJ1      -0.082000
     15 C15         -4.6060    -0.9860    -0.0050 ca         1 GJ1      -0.132000
     16 C16         -4.2730     0.3640    -0.0160 ca         1 GJ1       0.351300
     17 N17         -3.0120     0.7820    -0.0210 nb         1 GJ1      -0.697000
     18 C18         -5.3030     1.4580    -0.0240 c3         1 GJ1       0.109300
     19 O19         -6.5940     0.9100    -0.0100 oh         1 GJ1      -0.663000
     20 H1           1.4140     1.9690    -0.0210 ha         1 GJ1       0.118000
     21 H2           3.7830     2.4260     0.0130 ha         1 GJ1       0.117000
     22 H4          -0.5460     1.1470     0.8590 h1         1 GJ1       0.053700
     23 H5          -0.5540     1.1470    -0.9040 h1         1 GJ1       0.053700
     24 H6           1.5090    -2.9000    -0.9160 hc         1 GJ1       0.044367
     25 H7           2.8660    -3.3630     0.1050 hc         1 GJ1       0.044367
     26 H8           1.3410    -2.8540     0.8290 hc         1 GJ1       0.044367
     27 H9           4.5960    -1.7850     0.0520 ha         1 GJ1       0.128000
     28 H10          5.9470     2.3520    -0.8450 h1         1 GJ1       0.039033
     29 H11          5.9310     2.3640     0.9310 h1         1 GJ1       0.039033
     30 H12          7.3230     1.6950     0.0590 h1         1 GJ1       0.039033
     31 H13         -3.7950    -2.9710     0.0090 ha         1 GJ1       0.119000
     32 H14         -5.6370    -1.3080    -0.0010 ha         1 GJ1       0.142000
     33 H15         -5.1210     2.1040     0.8450 h1         1 GJ1       0.040700
     34 H16         -5.1300     2.0830    -0.9110 h1         1 GJ1       0.040700
     35 H17         -7.2270     1.6330    -0.0190 ho         1 GJ1       0.451000
     36 H3          -1.4450    -2.1880    -0.0000 ha         1 GJ1       0.139000
@<TRIPOS>BOND
     1     1     2 ar  
     2     1     5 ar  
     3     1    12 1   
     4     2     3 ar  
     5     2    20 1   
     6     3     4 ar  
     7     3    21 1   
     8     4     9 ar  
     9     4    10 1   
    10     5     8 1   
    11     5     9 ar  
    12     6    13 ar  
    13     6    14 ar  
    14     6    36 1   
    15     7    12 1   
    16     7    13 1   
    17     7    22 1   
    18     7    23 1   
    19     8    24 1   
    20     8    25 1   
    21     8    26 1   
    22     9    27 1   
    23    10    11 1   
    24    11    28 1   
    25    11    29 1   
    26    11    30 1   
    27    13    17 ar  
    28    14    15 ar  
    29    14    31 1   
    30    15    16 ar  
    31    15    32 1   
    32    16    17 ar  
    33    16    18 1   
    34    18    19 1   
    35    18    33 1   
    36    18    34 1   
    37    19    35 1   
@<TRIPOS>SUBSTRUCTURE
     1 GJ1         1 TEMP              0 ****  ****    0 ROOT
