@<TRIPOS>MOLECULE
GJ2
   46    47     1     0     0
SMALL
No Charge or Current Charge


@<TRIPOS>ATOM
      1 C4          -2.9270    -1.9740    -0.2450 ca         1 GJ2      -0.308500
      2 C14          6.9300     0.7890    -1.3760 ca         1 GJ2      -0.018500
      3 C5          -2.3470    -1.6110    -1.4780 ca         1 GJ2      -0.018500
      4 C6          -1.0210    -1.1450    -1.5200 ca         1 GJ2      -0.108000
      5 C11          2.2300    -0.1620    -0.4140 c1         1 GJ2      -0.106100
      6 C7          -0.2690    -1.0390    -0.3370 ca         1 GJ2       0.086000
      7 C8          -0.8480    -1.4010     0.8930 ca         1 GJ2      -0.108000
      8 C9          -2.1730    -1.8680     0.9430 ca         1 GJ2      -0.018500
      9 C10          1.0820    -0.5620    -0.3830 cg         1 GJ2      -0.111000
     10 C12          3.6120     0.3170    -0.4980 c3         1 GJ2       0.286900
     11 C13          6.5510     0.5110    -0.0450 ca         1 GJ2      -0.315500
     12 N1          -5.4760    -1.1210    -0.3520 n7         1 GJ2      -0.868300
     13 N2           4.0250     0.8760     0.7960 n7         1 GJ2      -0.858300
     14 C3          -5.0320     0.0350     0.4430 c3         1 GJ2       0.203800
     15 F1          -4.3990     2.9340     0.5880 f          1 GJ2      -0.115000
     16 C1          -5.6160     2.4890     0.9760 c3         1 GJ2       0.301000
     17 F2          -5.5800     2.2760     2.3110 f          1 GJ2      -0.115000
     18 F3          -6.5130     3.4720     0.7370 f          1 GJ2      -0.115000
     19 C2          -6.0070     1.2040     0.2180 c3         1 GJ2      -0.156400
     20 S1          -4.6330    -2.5530    -0.1950 sy         1 GJ2       1.152600
     21 O1          -4.9180    -3.3010    -1.4220 o          1 GJ2      -0.526500
     22 O2          -4.9600    -3.0620     1.1370 o          1 GJ2      -0.526500
     23 S2           5.4950     1.6540     0.8630 sy         1 GJ2       1.148600
     24 O3           5.8750     1.6330     2.2770 o          1 GJ2      -0.526500
     25 O4           5.3210     2.8970     0.1080 o          1 GJ2      -0.526500
     26 C15          7.7450    -0.1160    -2.0770 ca         1 GJ2      -0.128000
     27 C16          8.1850    -1.2990    -1.4580 ca         1 GJ2      -0.053000
     28 C17          7.8080    -1.5780    -0.1330 ca         1 GJ2      -0.128000
     29 C18          6.9920    -0.6770     0.5750 ca         1 GJ2      -0.018500
     30 H1           6.5970     1.7010    -1.8710 ha         1 GJ2       0.135500
     31 H2          -2.9200    -1.6810    -2.4010 ha         1 GJ2       0.138500
     32 H3          -0.5800    -0.8640    -2.4740 ha         1 GJ2       0.128500
     33 H4          -0.2710    -1.3210     1.8120 ha         1 GJ2       0.128500
     34 H5          -2.6060    -2.1410     1.9040 ha         1 GJ2       0.138500
     35 H6           4.2500    -0.5290    -0.7890 h1         1 GJ2       0.072700
     36 H7           3.6700     1.0700    -1.2970 h1         1 GJ2       0.072700
     37 H8          -6.3970    -1.4160    -0.0340 hn         1 GJ2       0.481000
     38 H9           3.3960     1.6410     1.0290 hn         1 GJ2       0.483000
     39 H10         -4.9980    -0.2120     1.5150 h1         1 GJ2       0.067200
     40 H11         -4.0250     0.3550     0.1410 h1         1 GJ2       0.067200
     41 H12         -6.0550     1.4290    -0.8540 hc         1 GJ2       0.090700
     42 H13         -7.0150     0.9050     0.5290 hc         1 GJ2       0.090700
     43 H14          8.0370     0.0990    -3.1020 ha         1 GJ2       0.122000
     44 H15          8.8150    -1.9980    -2.0030 ha         1 GJ2       0.120000
     45 H16          8.1460    -2.4940     0.3460 ha         1 GJ2       0.122000
     46 H17          6.7020    -0.9070     1.5990 ha         1 GJ2       0.135500
@<TRIPOS>BOND
     1     1     3 ar  
     2     1     8 ar  
     3     1    20 1   
     4     2    11 ar  
     5     2    26 ar  
     6     2    30 1   
     7     3     4 ar  
     8     3    31 1   
     9     4     6 ar  
    10     4    32 1   
    11     5     9 3   
    12     5    10 1   
    13     6     7 ar  
    14     6     9 1   
    15     7     8 ar  
    16     7    33 1   
    17     8    34 1   
    18    10    13 1   
    19    10    35 1   
    20    10    36 1   
    21    11    23 1   
    22    11    29 ar  
    23    12    14 1   
    24    12    20 1   
    25    12    37 1   
    26    13    23 1   
    27    13    38 1   
    28    14    19 1   
    29    14    39 1   
    30    14    40 1   
    31    15    16 1   
    32    16    17 1   
    33    16    18 1   
    34    16    19 1   
    35    19    41 1   
    36    19    42 1   
    37    20    21 2   
    38    20    22 2   
    39    23    24 2   
    40    23    25 2   
    41    26    27 ar  
    42    26    43 1   
    43    27    28 ar  
    44    27    44 1   
    45    28    29 ar  
    46    28    45 1   
    47    29    46 1   
@<TRIPOS>SUBSTRUCTURE
     1 GJ2         1 TEMP              0 ****  ****    0 ROOT
