@<TRIPOS>MOLECULE
GJ2
   46    47     1     0     0
SMALL
bcc


@<TRIPOS>ATOM
      1 C4          -2.9770    -1.9740    -0.1110 ca         1 GJ2      -0.308500
      2 C14          6.8060     1.2920    -1.2460 ca         1 GJ2      -0.036500
      3 C5          -2.2840    -1.3830    -1.1580 ca         1 GJ2      -0.036500
      4 C6          -0.9240    -1.1570    -1.0280 ca         1 GJ2      -0.126000
      5 C11          2.3210    -1.0750     0.3880 c1         1 GJ2      -0.106100
      6 C7          -0.2580    -1.5190     0.1440 ca         1 GJ2       0.086000
      7 C8          -0.9720    -2.1170     1.1870 ca         1 GJ2      -0.126000
      8 C9          -2.3300    -2.3450     1.0620 ca         1 GJ2      -0.036500
      9 C10          1.1410    -1.2820     0.2760 cg         1 GJ2      -0.111000
     10 C12          3.7490    -0.8230     0.5100 c3         1 GJ2       0.286900
     11 C13          6.6370     0.5570    -0.0780 ca         1 GJ2      -0.315500
     12 N1          -5.4380    -0.9000     0.4440 n7         1 GJ2      -0.813100
     13 N2           3.9840     0.6140     0.6270 n7         1 GJ2      -0.803100
     14 C3          -5.1840     0.4180    -0.1290 c3         1 GJ2       0.203800
     15 F1          -6.0970     2.8870    -1.3940 f          1 GJ2      -0.236300
     16 C1          -6.0260     2.7920    -0.0560 c3         1 GJ2       0.664900
     17 F2          -4.8320     3.2920     0.2980 f          1 GJ2      -0.236300
     18 F3          -6.9550     3.6210     0.4400 f          1 GJ2      -0.236300
     19 C2          -6.2250     1.3830     0.4270 c3         1 GJ2      -0.156400
     20 S1          -4.7290    -2.2180    -0.2440 sy         1 GJ2       1.294200
     21 O1          -5.0740    -2.2010    -1.6540 o          1 GJ2      -0.597300
     22 O2          -5.0950    -3.3500     0.5890 o          1 GJ2      -0.597300
     23 S2           5.4730     1.1250     1.1310 sy         1 GJ2       1.290200
     24 O3           5.7480     0.4350     2.3790 o          1 GJ2      -0.597300
     25 O4           5.4260     2.5750     1.0850 o          1 GJ2      -0.597300
     26 C15          7.6810     0.8230    -2.2130 ca         1 GJ2      -0.146000
     27 C16          8.3750    -0.3630    -2.0110 ca         1 GJ2      -0.071000
     28 C17          8.1990    -1.0850    -0.8390 ca         1 GJ2      -0.146000
     29 C18          7.3260    -0.6280     0.1390 ca         1 GJ2      -0.036500
     30 H1           6.2740     2.2200    -1.4070 ha         1 GJ2       0.153500
     31 H2          -2.7860    -1.1010    -2.0740 ha         1 GJ2       0.156500
     32 H3          -0.3780    -0.6980    -1.8410 ha         1 GJ2       0.146500
     33 H4          -0.4610    -2.4070     2.0940 ha         1 GJ2       0.146500
     34 H5          -2.8690    -2.8120     1.8760 ha         1 GJ2       0.156500
     35 H6           4.1220    -1.3180     1.4070 h1         1 GJ2       0.072700
     36 H7           4.2710    -1.2630    -0.3470 h1         1 GJ2       0.072700
     37 H8          -5.3700    -0.9250     1.4560 hn         1 GJ2       0.425800
     38 H9           3.6530     1.1440    -0.1740 hn         1 GJ2       0.427800
     39 H10         -4.1710     0.7640     0.0990 h1         1 GJ2       0.067200
     40 H11         -5.2820     0.3480    -1.2110 h1         1 GJ2       0.067200
     41 H12         -7.2240     1.0540     0.1360 hc         1 GJ2       0.090700
     42 H13         -6.1890     1.3900     1.5190 hc         1 GJ2       0.090700
     43 H14          7.8210     1.3880    -3.1240 ha         1 GJ2       0.140000
     44 H15          9.0570    -0.7250    -2.7690 ha         1 GJ2       0.138000
     45 H16          8.7430    -2.0060    -0.6790 ha         1 GJ2       0.140000
     46 H17          7.2000    -1.1910     1.0540 ha         1 GJ2       0.153500
@<TRIPOS>BOND
     1     1     3 ar  
     2     1     8 ar  
     3     1    20 1   
     4     2    11 ar  
     5     2    26 ar  
     6     2    30 1   
     7     3     4 ar  
     8     3    31 1   
     9     4     6 ar  
    10     4    32 1   
    11     5     9 3   
    12     5    10 1   
    13     6     7 ar  
    14     6     9 1   
    15     7     8 ar  
    16     7    33 1   
    17     8    34 1   
    18    10    13 1   
    19    10    35 1   
    20    10    36 1   
    21    11    23 1   
    22    11    29 ar  
    23    12    14 1   
    24    12    20 1   
    25    12    37 1   
    26    13    23 1   
    27    13    38 1   
    28    14    19 1   
    29    14    39 1   
    30    14    40 1   
    31    15    16 1   
    32    16    17 1   
    33    16    18 1   
    34    16    19 1   
    35    19    41 1   
    36    19    42 1   
    37    20    21 2   
    38    20    22 2   
    39    23    24 2   
    40    23    25 2   
    41    26    27 ar  
    42    26    43 1   
    43    27    28 ar  
    44    27    44 1   
    45    28    29 ar  
    46    28    45 1   
    47    29    46 1   
@<TRIPOS>SUBSTRUCTURE
     1 GJ2         1 TEMP              0 ****  ****    0 ROOT
