@<TRIPOS>MOLECULE
GJ3
   93    95     1     0     0
SMALL
No Charge or Current Charge


@<TRIPOS>ATOM
      1 N          -10.3070   -15.3010   -17.5870 ns         1 GJ3      -0.481900
      2 C           -9.4020   -17.5730   -17.9660 c3         1 GJ3       0.042700
      3 O           -9.1570   -16.3080   -15.8960 o          1 GJ3      -0.611100
      4 C1          -9.6040   -16.3530   -17.0360 c          1 GJ3       0.590100
      5 C10        -16.4070   -15.1240   -15.4690 c          1 GJ3       0.564000
      6 C11         -9.5280   -12.9060   -17.3680 c3         1 GJ3      -0.084400
      7 C12         -8.0060   -13.2550   -17.2500 c6         1 GJ3      -0.059700
      8 C13        -10.5310   -18.6270   -17.7590 c3         1 GJ3       0.165300
      9 C14        -11.9420   -18.0920   -18.1040 c3         1 GJ3      -0.119100
     10 C16         -5.1350   -19.8060   -18.9000 c3         1 GJ3       0.231900
     11 C18         -9.9780   -21.9830   -19.3710 c3         1 GJ3      -0.107767
     12 C19        -11.7260   -21.4290   -17.6130 c3         1 GJ3      -0.107767
     13 C2         -10.5480   -14.0010   -16.9260 c3         1 GJ3       0.042700
     14 C20         -9.2270   -21.2960   -17.0500 c3         1 GJ3      -0.107767
     15 C21         -7.1490   -11.9720   -17.0030 c6         1 GJ3      -0.072900
     16 C22         -5.6320   -12.1640   -17.3010 c6         1 GJ3      -0.071900
     17 C23         -5.2030   -13.6480   -17.2090 c6         1 GJ3      -0.075400
     18 C24         -5.9900   -14.5320   -18.2180 c6         1 GJ3      -0.071900
     19 C25         -7.4350   -14.0180   -18.4820 c6         1 GJ3      -0.072900
     20 C26         -5.6740   -21.1840   -19.2790 ca         1 GJ3      -0.131300
     21 C27         -5.8450   -22.1720   -18.2890 ca         1 GJ3      -0.080000
     22 C28         -6.3500   -23.4400   -18.6300 ca         1 GJ3      -0.119000
     23 C29         -6.6790   -23.7300   -19.9640 ca         1 GJ3      -0.099000
     24 C3         -12.0140   -13.5450   -17.1800 c          1 GJ3       0.586100
     25 C30         -6.5060   -22.7510   -20.9570 ca         1 GJ3      -0.119000
     26 C31         -6.0060   -21.4820   -20.6170 ca         1 GJ3      -0.080000
     27 C32        -13.3760    -9.9650   -17.2510 c3         1 GJ3      -0.172100
     28 C7         -15.4850   -14.2530   -16.3200 c5         1 GJ3      -0.176700
     29 C8         -16.4430   -13.7020   -17.4120 c5         1 GJ3      -0.089400
     30 C9         -17.3770   -14.9220   -17.6360 c5         1 GJ3       0.098000
     31 N1         -12.4550   -12.5150   -16.3560 ns         1 GJ3      -0.367500
     32 N2         -17.4700   -15.4390   -16.2720 ns         1 GJ3      -0.513900
     33 N3          -8.0550   -18.1450   -17.7200 ns         1 GJ3      -0.488900
     34 N4         -13.8890   -12.2560   -16.2910 n          1 GJ3      -0.285400
     35 O1         -12.7150   -14.0390   -18.0560 o          1 GJ3      -0.582100
     36 O2         -15.4930   -10.5860   -16.3240 o          1 GJ3      -0.583100
     37 O4         -10.2620   -19.7420   -18.6480 os         1 GJ3      -0.462000
     38 H1         -10.6770   -15.4300   -18.5230 hn         1 GJ3       0.335500
     39 H2          -9.4450   -17.2100   -19.0010 h1         1 GJ3       0.096700
     40 H3          -9.7330   -12.0150   -16.7620 hc         1 GJ3       0.057200
     41 H4          -9.7520   -12.6120   -18.4010 hc         1 GJ3       0.057200
     42 H5          -7.9060   -13.8970   -16.3630 hc         1 GJ3       0.047700
     43 H6         -10.5260   -18.9350   -16.7060 h1         1 GJ3       0.055700
     44 H7         -12.2360   -17.2900   -17.4170 hc         1 GJ3       0.048367
     45 H8         -11.9690   -17.6970   -19.1270 hc         1 GJ3       0.048367
     46 H9         -12.7000   -18.8770   -18.0230 hc         1 GJ3       0.048367
     47 H10         -4.2020   -19.9410   -18.3370 h1         1 GJ3       0.066200
     48 H11         -4.8910   -19.2230   -19.7980 h1         1 GJ3       0.066200
     49 H12         -9.9560   -23.0450   -19.0970 hc         1 GJ3       0.043033
     50 H13        -10.7280   -21.8500   -20.1600 hc         1 GJ3       0.043033
     51 H14         -8.9980   -21.7170   -19.7830 hc         1 GJ3       0.043033
     52 H15        -11.9660   -20.8420   -16.7190 hc         1 GJ3       0.043033
     53 H16        -12.4860   -21.2320   -18.3790 hc         1 GJ3       0.043033
     54 H17        -11.7960   -22.4880   -17.3390 hc         1 GJ3       0.043033
     55 H18        -10.4520   -14.1420   -15.8420 h1         1 GJ3       0.077700
     56 H19         -9.4650   -20.7450   -16.1340 hc         1 GJ3       0.043033
     57 H20         -9.1430   -22.3550   -16.7800 hc         1 GJ3       0.043033
     58 H21         -8.2460   -20.9680   -17.4080 hc         1 GJ3       0.043033
     59 H22         -7.2790   -11.6540   -15.9590 hc         1 GJ3       0.040450
     60 H23         -7.5240   -11.1430   -17.6190 hc         1 GJ3       0.040450
     61 H24         -5.4080   -11.7910   -18.3100 hc         1 GJ3       0.041450
     62 H25         -5.0350   -11.5530   -16.6110 hc         1 GJ3       0.041450
     63 H26         -4.1240   -13.7440   -17.3900 hc         1 GJ3       0.039700
     64 H27         -5.3760   -14.0110   -16.1860 hc         1 GJ3       0.039700
     65 H28         -5.4480   -14.5810   -19.1720 hc         1 GJ3       0.041450
     66 H29         -6.0270   -15.5610   -17.8360 hc         1 GJ3       0.041450
     67 H30         -8.0650   -14.8620   -18.7800 hc         1 GJ3       0.040450
     68 H31         -7.4260   -13.3410   -19.3480 hc         1 GJ3       0.040450
     69 H32         -5.5950   -21.9540   -17.2530 ha         1 GJ3       0.119000
     70 H33         -6.4850   -24.1950   -17.8600 ha         1 GJ3       0.113500
     71 H34         -7.0700   -24.7110   -20.2280 ha         1 GJ3       0.112000
     72 H35         -6.7620   -22.9740   -21.9910 ha         1 GJ3       0.113500
     73 H36         -5.8820   -20.7290   -21.3920 ha         1 GJ3       0.119000
     74 H37        -13.8500    -9.0140   -17.5150 hc         1 GJ3       0.063367
     75 H38        -12.5170    -9.8060   -16.5900 hc         1 GJ3       0.063367
     76 H39        -12.9220   -10.4500   -18.1220 hc         1 GJ3       0.063367
     77 H40        -15.4510   -12.6170   -14.9000 h1         1 GJ3       0.075700
     78 H41        -14.0780   -13.7080   -14.7720 h1         1 GJ3       0.075700
     79 H42        -14.7700   -14.9290   -16.7980 hc         1 GJ3       0.090700
     80 H43        -15.9240   -13.3900   -18.3260 hc         1 GJ3       0.072200
     81 H44        -17.0160   -12.8420   -17.0460 hc         1 GJ3       0.072200
     82 H45        -18.3510   -14.6260   -18.0480 h1         1 GJ3       0.042700
     83 H46        -16.9230   -15.6590   -18.3110 h1         1 GJ3       0.042700
     84 H47        -11.8590   -12.1820   -15.6020 hn         1 GJ3       0.339500
     85 H48        -18.2520   -15.9480   -15.8760 hn         1 GJ3       0.325500
     86 H49         -7.7200   -18.2170   -16.7680 hn         1 GJ3       0.336500
     87 C15         -7.2200   -18.6280   -18.6860 c          1 GJ3       0.647100
     88 C17        -10.3080   -21.1050   -18.1450 c3         1 GJ3       0.194000
     89 C5         -14.3480   -10.9390   -16.5800 c          1 GJ3       0.625100
     90 C6         -14.7250   -13.1900   -15.4920 c3         1 GJ3       0.120000
     91 O3         -16.3880   -15.3350   -14.2680 o          1 GJ3      -0.558000
     92 O5          -6.1050   -19.1260   -18.0830 os         1 GJ3      -0.460100
     93 O6          -7.4360   -18.5920   -19.8870 o          1 GJ3      -0.534000
@<TRIPOS>BOND
     1     1     4 1   
     2     1    13 1   
     3     1    38 1   
     4     2     4 1   
     5     2     8 1   
     6     2    33 1   
     7     2    39 1   
     8     3     4 2   
     9     5    28 1   
    10     5    32 1   
    11     5    91 2   
    12     6     7 1   
    13     6    13 1   
    14     6    40 1   
    15     6    41 1   
    16     7    15 1   
    17     7    19 1   
    18     7    42 1   
    19     8     9 1   
    20     8    37 1   
    21     8    43 1   
    22     9    44 1   
    23     9    45 1   
    24     9    46 1   
    25    10    20 1   
    26    10    47 1   
    27    10    48 1   
    28    10    92 1   
    29    11    49 1   
    30    11    50 1   
    31    11    51 1   
    32    11    88 1   
    33    12    52 1   
    34    12    53 1   
    35    12    54 1   
    36    12    88 1   
    37    13    24 1   
    38    13    55 1   
    39    14    56 1   
    40    14    57 1   
    41    14    58 1   
    42    14    88 1   
    43    15    16 1   
    44    15    59 1   
    45    15    60 1   
    46    16    17 1   
    47    16    61 1   
    48    16    62 1   
    49    17    18 1   
    50    17    63 1   
    51    17    64 1   
    52    18    19 1   
    53    18    65 1   
    54    18    66 1   
    55    19    67 1   
    56    19    68 1   
    57    20    21 ar  
    58    20    26 ar  
    59    21    22 ar  
    60    21    69 1   
    61    22    23 ar  
    62    22    70 1   
    63    23    25 ar  
    64    23    71 1   
    65    24    31 1   
    66    24    35 2   
    67    25    26 ar  
    68    25    72 1   
    69    26    73 1   
    70    27    74 1   
    71    27    75 1   
    72    27    76 1   
    73    27    89 1   
    74    28    29 1   
    75    28    79 1   
    76    28    90 1   
    77    29    30 1   
    78    29    80 1   
    79    29    81 1   
    80    30    32 1   
    81    30    82 1   
    82    30    83 1   
    83    31    34 1   
    84    31    84 1   
    85    32    85 1   
    86    33    86 1   
    87    33    87 1   
    88    34    89 1   
    89    34    90 1   
    90    36    89 2   
    91    37    88 1   
    92    77    90 1   
    93    78    90 1   
    94    87    92 1   
    95    87    93 2   
@<TRIPOS>SUBSTRUCTURE
     1 GJ3         1 TEMP              0 ****  ****    0 ROOT
