@<TRIPOS>MOLECULE
GJ3
   93    95     1     0     0
SMALL
bcc


@<TRIPOS>ATOM
      1 N           -9.6800   -15.0370   -17.7880 ns         1 GJ3      -0.548900
      2 C           -9.7250   -17.4490   -18.0980 c3         1 GJ3       0.042700
      3 O          -10.5730   -16.3140   -16.1670 o          1 GJ3      -0.611100
      4 C1         -10.0380   -16.2150   -17.2630 c          1 GJ3       0.657100
      5 C10        -14.8740   -16.4100   -15.1170 c          1 GJ3       0.706500
      6 C11         -9.3130   -12.6040   -17.8160 c3         1 GJ3      -0.084400
      7 C12         -7.8360   -12.3680   -17.5000 c6         1 GJ3      -0.059700
      8 C13        -11.0200   -18.2080   -18.4440 c3         1 GJ3       0.142100
      9 C14        -11.9570   -17.3360   -19.2680 c3         1 GJ3      -0.119100
     10 C16         -6.0360   -20.4510   -17.4990 c3         1 GJ3       0.208700
     11 C18        -10.5820   -21.5790   -19.8490 c3         1 GJ3      -0.107767
     12 C19        -12.7080   -20.6270   -18.9450 c3         1 GJ3      -0.107767
     13 C2          -9.9630   -13.7960   -17.1060 c3         1 GJ3       0.042700
     14 C20        -10.7740   -21.0610   -17.4200 c3         1 GJ3      -0.107767
     15 C21         -7.4000   -11.0370   -18.1450 c6         1 GJ3      -0.072900
     16 C22         -5.8940   -10.9680   -18.4250 c6         1 GJ3      -0.071900
     17 C23         -5.1180   -11.7380   -17.3670 c6         1 GJ3      -0.075400
     18 C24         -5.4630   -13.2320   -17.4320 c6         1 GJ3      -0.071900
     19 C25         -6.8930   -13.4880   -17.9330 c6         1 GJ3      -0.072900
     20 C26         -6.4740   -21.6220   -18.3310 ca         1 GJ3      -0.131300
     21 C27         -7.1590   -22.6800   -17.7370 ca         1 GJ3      -0.098000
     22 C28         -7.5740   -23.7670   -18.4920 ca         1 GJ3      -0.137000
     23 C29         -7.3030   -23.8110   -19.8540 ca         1 GJ3      -0.117000
     24 C3         -11.4760   -13.5930   -17.0850 c          1 GJ3       0.653100
     25 C30         -6.6180   -22.7630   -20.4540 ca         1 GJ3      -0.137000
     26 C31         -6.2110   -21.6720   -19.6960 ca         1 GJ3      -0.098000
     27 C32        -12.9870   -10.7500   -16.6840 c3         1 GJ3      -0.172100
     28 C7         -14.2260   -15.2770   -15.9020 c5         1 GJ3      -0.176700
     29 C8         -15.1450   -15.1180   -17.1110 c5         1 GJ3      -0.089400
     30 C9         -15.7300   -16.5190   -17.3000 c5         1 GJ3       0.098000
     31 N1         -11.9670   -13.1650   -15.8990 ns         1 GJ3      -0.434500
     32 N2         -15.7190   -17.0400   -15.9490 ns         1 GJ3      -0.580900
     33 N3          -8.8060   -18.2640   -17.3470 ns         1 GJ3      -0.555900
     34 N4         -13.3040   -12.9700   -15.7060 n          1 GJ3      -0.352400
     35 O1         -12.1570   -13.7510   -18.0770 o          1 GJ3      -0.582100
     36 O2         -15.0980   -11.6470   -16.0070 o          1 GJ3      -0.583100
     37 O4         -10.6350   -19.3500   -19.1690 os         1 GJ3      -0.415600
     38 H1          -9.3020   -15.0020   -18.7220 hn         1 GJ3       0.335500
     39 H2          -9.2310   -17.1620   -19.0280 h1         1 GJ3       0.096700
     40 H3          -9.8570   -11.7000   -17.5270 hc         1 GJ3       0.057200
     41 H4          -9.4570   -12.7070   -18.8970 hc         1 GJ3       0.057200
     42 H5          -7.7510   -12.2690   -16.4100 hc         1 GJ3       0.047700
     43 H6         -11.5150   -18.4750   -17.5030 h1         1 GJ3       0.055700
     44 H7         -12.2580   -16.4380   -18.7270 hc         1 GJ3       0.048367
     45 H8         -11.4800   -17.0240   -20.1990 hc         1 GJ3       0.048367
     46 H9         -12.8670   -17.8800   -19.5190 hc         1 GJ3       0.048367
     47 H10         -5.5450   -20.7920   -16.5870 h1         1 GJ3       0.066200
     48 H11         -5.3300   -19.8210   -18.0420 h1         1 GJ3       0.066200
     49 H12        -10.9440   -22.5940   -19.6810 hc         1 GJ3       0.043033
     50 H13        -10.8540   -21.2900   -20.8650 hc         1 GJ3       0.043033
     51 H14         -9.4930   -21.5990   -19.7750 hc         1 GJ3       0.043033
     52 H15        -13.1800   -19.9580   -18.2210 hc         1 GJ3       0.043033
     53 H16        -13.0280   -20.3300   -19.9450 hc         1 GJ3       0.043033
     54 H17        -13.0940   -21.6290   -18.7530 hc         1 GJ3       0.043033
     55 H18         -9.5780   -13.8560   -16.0830 h1         1 GJ3       0.077700
     56 H19        -11.1920   -20.4190   -16.6420 hc         1 GJ3       0.043033
     57 H20        -11.1380   -22.0710   -17.2290 hc         1 GJ3       0.043033
     58 H21         -9.6890   -21.0730   -17.3080 hc         1 GJ3       0.043033
     59 H22         -7.6950   -10.2140   -17.4890 hc         1 GJ3       0.040450
     60 H23         -7.9470   -10.8880   -19.0820 hc         1 GJ3       0.040450
     61 H24         -5.6760   -11.3930   -19.4090 hc         1 GJ3       0.041450
     62 H25         -5.5710    -9.9250   -18.4670 hc         1 GJ3       0.041450
     63 H26         -4.0420   -11.5940   -17.4890 hc         1 GJ3       0.039700
     64 H27         -5.3670   -11.3350   -16.3800 hc         1 GJ3       0.039700
     65 H28         -4.7580   -13.7470   -18.0890 hc         1 GJ3       0.041450
     66 H29         -5.3370   -13.6780   -16.4430 hc         1 GJ3       0.041450
     67 H30         -7.2290   -14.4570   -17.5610 hc         1 GJ3       0.040450
     68 H31         -6.9090   -13.5600   -19.0260 hc         1 GJ3       0.040450
     69 H32         -7.3660   -22.6560   -16.6730 ha         1 GJ3       0.137000
     70 H33         -8.1040   -24.5820   -18.0170 ha         1 GJ3       0.131500
     71 H34         -7.6230   -24.6600   -20.4450 ha         1 GJ3       0.130000
     72 H35         -6.4030   -22.7910   -21.5150 ha         1 GJ3       0.131500
     73 H36         -5.6810   -20.8550   -20.1700 ha         1 GJ3       0.137000
     74 H37        -13.5520    -9.8280   -16.7950 hc         1 GJ3       0.063367
     75 H38        -12.1200   -10.5620   -16.0530 hc         1 GJ3       0.063367
     76 H39        -12.6210   -11.0430   -17.6690 hc         1 GJ3       0.063367
     77 H40        -14.9840   -13.6460   -14.7150 h1         1 GJ3       0.075700
     78 H41        -13.4630   -14.3120   -14.1410 h1         1 GJ3       0.075700
     79 H42        -13.2490   -15.6590   -16.2250 hc         1 GJ3       0.090700
     80 H43        -14.6240   -14.7620   -17.9950 hc         1 GJ3       0.072200
     81 H44        -15.9450   -14.4110   -16.8800 hc         1 GJ3       0.072200
     82 H45        -16.7410   -16.5030   -17.7060 h1         1 GJ3       0.042700
     83 H46        -15.1090   -17.1290   -17.9640 h1         1 GJ3       0.042700
     84 H47        -11.3700   -13.0850   -15.0880 hn         1 GJ3       0.339500
     85 H48        -16.1790   -17.9000   -15.6930 hn         1 GJ3       0.325500
     86 H49         -9.0930   -18.5650   -16.4270 hn         1 GJ3       0.336500
     87 C15         -7.7340   -18.8570   -17.9110 c          1 GJ3       0.763100
     88 C17        -11.1850   -20.6240   -18.8250 c3         1 GJ3       0.170800
     89 C5         -13.8960   -11.8070   -16.1120 c          1 GJ3       0.692100
     90 C6         -14.0230   -14.0420   -15.0390 c3         1 GJ3       0.120000
     91 O3         -14.6530   -16.6980   -13.9520 o          1 GJ3      -0.633500
     92 O5          -7.1510   -19.6850   -17.0350 os         1 GJ3      -0.436900
     93 O6          -7.3240   -18.6570   -19.0340 o          1 GJ3      -0.583000
@<TRIPOS>BOND
     1     1     4 1   
     2     1    13 1   
     3     1    38 1   
     4     2     4 1   
     5     2     8 1   
     6     2    33 1   
     7     2    39 1   
     8     3     4 2   
     9     5    28 1   
    10     5    32 1   
    11     5    91 2   
    12     6     7 1   
    13     6    13 1   
    14     6    40 1   
    15     6    41 1   
    16     7    15 1   
    17     7    19 1   
    18     7    42 1   
    19     8     9 1   
    20     8    37 1   
    21     8    43 1   
    22     9    44 1   
    23     9    45 1   
    24     9    46 1   
    25    10    20 1   
    26    10    47 1   
    27    10    48 1   
    28    10    92 1   
    29    11    49 1   
    30    11    50 1   
    31    11    51 1   
    32    11    88 1   
    33    12    52 1   
    34    12    53 1   
    35    12    54 1   
    36    12    88 1   
    37    13    24 1   
    38    13    55 1   
    39    14    56 1   
    40    14    57 1   
    41    14    58 1   
    42    14    88 1   
    43    15    16 1   
    44    15    59 1   
    45    15    60 1   
    46    16    17 1   
    47    16    61 1   
    48    16    62 1   
    49    17    18 1   
    50    17    63 1   
    51    17    64 1   
    52    18    19 1   
    53    18    65 1   
    54    18    66 1   
    55    19    67 1   
    56    19    68 1   
    57    20    21 ar  
    58    20    26 ar  
    59    21    22 ar  
    60    21    69 1   
    61    22    23 ar  
    62    22    70 1   
    63    23    25 ar  
    64    23    71 1   
    65    24    31 1   
    66    24    35 2   
    67    25    26 ar  
    68    25    72 1   
    69    26    73 1   
    70    27    74 1   
    71    27    75 1   
    72    27    76 1   
    73    27    89 1   
    74    28    29 1   
    75    28    79 1   
    76    28    90 1   
    77    29    30 1   
    78    29    80 1   
    79    29    81 1   
    80    30    32 1   
    81    30    82 1   
    82    30    83 1   
    83    31    34 1   
    84    31    84 1   
    85    32    85 1   
    86    33    86 1   
    87    33    87 1   
    88    34    89 1   
    89    34    90 1   
    90    36    89 2   
    91    37    88 1   
    92    77    90 1   
    93    78    90 1   
    94    87    92 1   
    95    87    93 2   
@<TRIPOS>SUBSTRUCTURE
     1 GJ3         1 TEMP              0 ****  ****    0 ROOT
