@<TRIPOS>MOLECULE
GJ4
   61    63     1     0     0
SMALL
abcg2


@<TRIPOS>ATOM
      1 C01         36.2430   -42.3100    29.1920 c3         1 GJ4      -0.081100
      2 C02         36.6140   -41.1420    28.2800 c3         1 GJ4      -0.011100
      3 C04         36.9210   -38.9920    29.6200 cc         1 GJ4      -0.228500
      4 C05         38.2740   -39.1070    30.1350 cc         1 GJ4       0.433500
      5 C06         39.0080   -38.0800    30.6450 cd         1 GJ4      -0.304000
      6 C08         40.1170   -40.2400    30.5830 cd         1 GJ4       0.714300
      7 N09         40.9630   -41.2910    30.6320 nh         1 GJ4      -0.800300
      8 C10         42.2910   -41.2410    31.2090 c6         1 GJ4       0.204800
      9 C11         42.4150   -42.2360    32.3670 c6         1 GJ4       0.143800
     10 C13         41.4030   -43.6840    30.7150 c6         1 GJ4       0.154800
     11 C14         40.4860   -42.5770    30.1570 c6         1 GJ4       0.113500
     12 C15         40.3800   -42.6930    28.6390 c          1 GJ4       0.600100
     13 C18         41.0470   -41.7490    26.4730 c3         1 GJ4       0.108000
     14 C21         38.4650   -38.9110    25.8240 c3         1 GJ4       0.164600
     15 C25         34.9760   -37.9220    29.2860 cc         1 GJ4      -0.072300
     16 C26         34.0040   -36.8100    29.4540 c3         1 GJ4      -0.032800
     17 C27         34.9190   -39.1300    28.5840 cd         1 GJ4      -0.266600
     18 C03         36.1670   -39.8110    28.8050 cd         1 GJ4      -0.038300
     19 C19         39.8220   -41.0280    25.9180 c3         1 GJ4      -0.102400
     20 C20         39.6970   -39.5860    26.3930 c3         1 GJ4      -0.083400
     21 C29         33.7120   -40.8140    27.0550 c3         1 GJ4      -0.191100
     22 N12         41.7010   -43.4840    32.1130 n7         1 GJ4      -0.854400
     23 N17         41.0810   -41.8090    27.9200 ns         1 GJ4      -0.492900
     24 N23         38.9110   -40.3210    30.1080 nc         1 GJ4      -0.725000
     25 N24         36.1720   -37.8710    29.8860 na         1 GJ4      -0.093000
     26 O16         39.7310   -43.6080    28.1490 o          1 GJ4      -0.606100
     27 O22         38.3720   -37.6020    26.3450 oh         1 GJ4      -0.663000
     28 O30         32.7880   -38.7480    27.7100 o          1 GJ4      -0.567100
     29 S07         40.5700   -38.6440    31.1220 ss         1 GJ4      -0.097400
     30 H1          36.5590   -43.2570    28.7510 hc         1 GJ4       0.035367
     31 H2          36.7350   -42.2110    30.1600 hc         1 GJ4       0.035367
     32 H3          35.1690   -42.3670    29.3710 hc         1 GJ4       0.035367
     33 H4          36.2110   -41.3120    27.2830 hc         1 GJ4       0.051200
     34 H5          37.6960   -41.1290    28.1650 hc         1 GJ4       0.051200
     35 H6          38.7550   -37.0370    30.7490 h4         1 GJ4       0.156000
     36 H7          43.0320   -41.4570    30.4350 h1         1 GJ4       0.057700
     37 H8          42.5150   -40.2360    31.5660 h1         1 GJ4       0.057700
     38 H9          43.4790   -42.4260    32.5340 h1         1 GJ4       0.056200
     39 H10         42.0250   -41.7880    33.2810 h1         1 GJ4       0.056200
     40 H11         40.9080   -44.6440    30.5760 h1         1 GJ4       0.074200
     41 H12         42.3380   -43.7280    30.1500 h1         1 GJ4       0.074200
     42 H13         39.4780   -42.7450    30.5480 h1         1 GJ4       0.100700
     43 H14         41.0940   -42.7630    26.0750 h1         1 GJ4       0.053200
     44 H15         41.9560   -41.2390    26.1510 h1         1 GJ4       0.053200
     45 H16         37.5780   -39.5050    26.0820 h1         1 GJ4       0.018200
     46 H17         38.5290   -38.9020    24.7270 h1         1 GJ4       0.018200
     47 H18         33.0640   -37.1590    29.8800 hc         1 GJ4       0.056367
     48 H19         34.4110   -36.0450    30.1140 hc         1 GJ4       0.056367
     49 H20         33.7660   -36.3400    28.5000 hc         1 GJ4       0.056367
     50 H21         38.9220   -41.5870    26.1860 hc         1 GJ4       0.052200
     51 H22         39.8860   -41.0560    24.8260 hc         1 GJ4       0.052200
     52 H23         40.5910   -39.0240    26.1050 hc         1 GJ4       0.050700
     53 H24         39.6420   -39.5570    27.4850 hc         1 GJ4       0.050700
     54 H25         32.7190   -40.9740    26.6400 hc         1 GJ4       0.058033
     55 H26         34.4270   -40.8100    26.2290 hc         1 GJ4       0.058033
     56 H27         33.9630   -41.6570    27.6970 hc         1 GJ4       0.058033
     57 H28         40.8410   -43.5030    32.6450 hn         1 GJ4       0.421000
     58 H30         41.5440   -41.0580    28.4050 hn         1 GJ4       0.316500
     59 H31         36.4550   -37.1160    30.4930 hn         1 GJ4       0.346000
     60 H32         37.5700   -37.1990    26.0010 ho         1 GJ4       0.443000
     61 C28         33.7480   -39.5000    27.7930 c          1 GJ4       0.613700
@<TRIPOS>BOND
     1     1     2 1   
     2     1    30 1   
     3     1    31 1   
     4     1    32 1   
     5     2    18 1   
     6     2    33 1   
     7     2    34 1   
     8     3     4 1   
     9     3    18 2   
    10     3    25 1   
    11     4     5 2   
    12     4    24 1   
    13     5    29 1   
    14     5    35 1   
    15     6     7 1   
    16     6    24 2   
    17     6    29 1   
    18     7     8 1   
    19     7    11 1   
    20     8     9 1   
    21     8    36 1   
    22     8    37 1   
    23     9    22 1   
    24     9    38 1   
    25     9    39 1   
    26    10    11 1   
    27    10    22 1   
    28    10    40 1   
    29    10    41 1   
    30    11    12 1   
    31    11    42 1   
    32    12    23 1   
    33    12    26 2   
    34    13    19 1   
    35    13    23 1   
    36    13    43 1   
    37    13    44 1   
    38    14    20 1   
    39    14    27 1   
    40    14    45 1   
    41    14    46 1   
    42    15    16 1   
    43    15    17 2   
    44    15    25 1   
    45    16    47 1   
    46    16    48 1   
    47    16    49 1   
    48    17    18 1   
    49    17    61 1   
    50    19    20 1   
    51    19    50 1   
    52    19    51 1   
    53    20    52 1   
    54    20    53 1   
    55    21    54 1   
    56    21    55 1   
    57    21    56 1   
    58    21    61 1   
    59    22    57 1   
    60    23    58 1   
    61    25    59 1   
    62    27    60 1   
    63    28    61 2   
@<TRIPOS>SUBSTRUCTURE
     1 GJ4         1 TEMP              0 ****  ****    0 ROOT
