@<TRIPOS>MOLECULE
GJ4
   61    63     1     0     0
SMALL
No Charge or Current Charge


@<TRIPOS>ATOM
      1 C01         35.8140   -42.2730    29.9950 c3         1 GJ4      -0.081100
      2 C02         36.1620   -41.5250    28.6920 c3         1 GJ4      -0.011100
      3 C04         36.8370   -39.1050    29.2800 cc         1 GJ4      -0.228500
      4 C05         38.1690   -39.2940    29.8320 cc         1 GJ4       0.433500
      5 C06         38.8830   -38.1940    30.2620 cd         1 GJ4      -0.304000
      6 C08         39.9750   -40.3220    30.5020 cd         1 GJ4       0.714300
      7 N09         40.8250   -41.3970    30.7790 nh         1 GJ4      -0.800300
      8 C10         41.8920   -41.2690    31.8260 c6         1 GJ4       0.204800
      9 C11         42.2420   -42.6450    32.4770 c6         1 GJ4       0.143800
     10 C13         42.1710   -43.4390    30.1060 c6         1 GJ4       0.154800
     11 C14         40.7690   -42.7360    30.0380 c6         1 GJ4       0.113500
     12 C15         40.3250   -42.6940    28.5380 c          1 GJ4       0.600100
     13 C18         40.8400   -41.6970    26.2790 c3         1 GJ4       0.108000
     14 C21         39.0420   -38.1640    26.3340 c3         1 GJ4       0.164600
     15 C25         34.9790   -37.9470    28.6400 cc         1 GJ4      -0.072300
     16 C26         34.1150   -36.7270    28.4270 c3         1 GJ4      -0.032800
     17 C27         34.7490   -39.2930    28.3940 cd         1 GJ4      -0.266600
     18 C03         35.9310   -40.0280    28.7870 cd         1 GJ4      -0.038300
     19 C19         39.7450   -40.6250    26.0780 c3         1 GJ4      -0.102400
     20 C20         40.1370   -39.2180    26.5880 c3         1 GJ4      -0.083400
     21 C29         33.1410   -41.2450    27.5530 c3         1 GJ4      -0.191100
     22 N12         42.6600   -43.6970    31.4980 n7         1 GJ4      -0.854400
     23 N17         41.1310   -41.9550    27.6910 ns         1 GJ4      -0.492900
     24 N23         38.7870   -40.5100    29.9770 nc         1 GJ4      -0.725000
     25 N24         36.2510   -37.8510    29.1760 na         1 GJ4      -0.093000
     26 O16         39.2920   -43.2220    28.1440 o          1 GJ4      -0.606100
     27 O22         39.4810   -36.8850    26.8020 oh         1 GJ4      -0.663000
     28 O30         32.5360   -38.9790    27.5350 o          1 GJ4      -0.567100
     29 S07         40.4430   -38.6730    30.8980 ss         1 GJ4      -0.097400
     30 H1          35.9710   -43.3500    29.8710 hc         1 GJ4       0.035367
     31 H2          36.4470   -41.9280    30.8200 hc         1 GJ4       0.035367
     32 H3          34.7690   -42.1060    30.2790 hc         1 GJ4       0.035367
     33 H4          35.6250   -41.9710    27.8560 hc         1 GJ4       0.051200
     34 H5          37.2030   -41.7260    28.4350 hc         1 GJ4       0.051200
     35 H6          38.6020   -37.1510    30.2460 h4         1 GJ4       0.156000
     36 H7          42.8020   -40.8380    31.3840 h1         1 GJ4       0.057700
     37 H8          41.5680   -40.5900    32.6270 h1         1 GJ4       0.057700
     38 H9          43.0270   -42.5110    33.2350 h1         1 GJ4       0.056200
     39 H10         41.3440   -42.9960    33.0070 h1         1 GJ4       0.056200
     40 H11         42.1400   -44.3860    29.5460 h1         1 GJ4       0.074200
     41 H12         42.9040   -42.7970    29.5950 h1         1 GJ4       0.074200
     42 H13         40.0350   -43.3900    30.5290 h1         1 GJ4       0.100700
     43 H14         40.5200   -42.6360    25.8080 h1         1 GJ4       0.053200
     44 H15         41.7640   -41.3740    25.7830 h1         1 GJ4       0.053200
     45 H16         38.1200   -38.4640    26.8490 h1         1 GJ4       0.018200
     46 H17         38.8270   -38.1190    25.2580 h1         1 GJ4       0.018200
     47 H18         33.1880   -36.7950    29.0090 hc         1 GJ4       0.056367
     48 H19         34.6320   -35.8110    28.7380 hc         1 GJ4       0.056367
     49 H20         33.8500   -36.6120    27.3690 hc         1 GJ4       0.056367
     50 H21         38.8220   -40.9480    26.5750 hc         1 GJ4       0.052200
     51 H22         39.5170   -40.5630    25.0060 hc         1 GJ4       0.052200
     52 H23         41.0620   -38.9010    26.0920 hc         1 GJ4       0.050700
     53 H24         40.3480   -39.2620    27.6630 hc         1 GJ4       0.050700
     54 H25         32.0970   -41.4170    27.2680 hc         1 GJ4       0.058033
     55 H26         33.8030   -41.5960    26.7560 hc         1 GJ4       0.058033
     56 H27         33.4150   -41.8450    28.4240 hc         1 GJ4       0.058033
     57 H28         42.2940   -44.6010    31.8290 hn         1 GJ4       0.421000
     58 H30         41.9280   -41.4940    28.1140 hn         1 GJ4       0.316500
     59 H31         36.6860   -36.9790    29.4610 hn         1 GJ4       0.346000
     60 H32         38.7890   -36.2360    26.5480 ho         1 GJ4       0.443000
     61 C28         33.4310   -39.7680    27.8150 c          1 GJ4       0.613700
@<TRIPOS>BOND
     1     1     2 1   
     2     1    30 1   
     3     1    31 1   
     4     1    32 1   
     5     2    18 1   
     6     2    33 1   
     7     2    34 1   
     8     3     4 1   
     9     3    18 2   
    10     3    25 1   
    11     4     5 2   
    12     4    24 1   
    13     5    29 1   
    14     5    35 1   
    15     6     7 1   
    16     6    24 2   
    17     6    29 1   
    18     7     8 1   
    19     7    11 1   
    20     8     9 1   
    21     8    36 1   
    22     8    37 1   
    23     9    22 1   
    24     9    38 1   
    25     9    39 1   
    26    10    11 1   
    27    10    22 1   
    28    10    40 1   
    29    10    41 1   
    30    11    12 1   
    31    11    42 1   
    32    12    23 1   
    33    12    26 2   
    34    13    19 1   
    35    13    23 1   
    36    13    43 1   
    37    13    44 1   
    38    14    20 1   
    39    14    27 1   
    40    14    45 1   
    41    14    46 1   
    42    15    16 1   
    43    15    17 2   
    44    15    25 1   
    45    16    47 1   
    46    16    48 1   
    47    16    49 1   
    48    17    18 1   
    49    17    61 1   
    50    19    20 1   
    51    19    50 1   
    52    19    51 1   
    53    20    52 1   
    54    20    53 1   
    55    21    54 1   
    56    21    55 1   
    57    21    56 1   
    58    21    61 1   
    59    22    57 1   
    60    23    58 1   
    61    25    59 1   
    62    27    60 1   
    63    28    61 2   
@<TRIPOS>SUBSTRUCTURE
     1 GJ4         1 TEMP              0 ****  ****    0 ROOT
