@<TRIPOS>MOLECULE
GJ5
   43    44     1     0     0
SMALL
No Charge or Current Charge


@<TRIPOS>ATOM
      1 C4           5.8930    -1.4690     0.8130 c3         1 GJ5      -0.116700
      2 C5           4.9910    -0.3130     0.4720 cc         1 GJ5       0.452700
      3 C6           3.1080     0.8150     0.1110 cd         1 GJ5       0.337500
      4 C11         -1.2040     1.2670    -0.1510 ca         1 GJ5      -0.149600
      5 C7           4.0270     1.8140    -0.1320 cc         1 GJ5      -0.255000
      6 C8           1.6350     0.9720     0.0210 ca         1 GJ5      -0.092500
      7 C9           1.0530     2.2090    -0.3340 ca         1 GJ5      -0.099000
      8 C10         -0.3420     2.3530    -0.4180 ca         1 GJ5      -0.077000
      9 C12         -0.6240     0.0270     0.2050 ca         1 GJ5      -0.077000
     10 C13          0.7720    -0.1150     0.2880 ca         1 GJ5      -0.099000
     11 N1           3.6700    -0.4060     0.4620 nd         1 GJ5      -0.645000
     12 N2          -3.4940     0.3660     0.0200 ns         1 GJ5      -0.506900
     13 C2           6.7090    -2.0220    -0.3870 c3         1 GJ5      -0.057700
     14 S1           5.6590     1.2480     0.0770 ss         1 GJ5      -0.034400
     15 O1          -3.2050     2.5360    -0.5600 o          1 GJ5      -0.592100
     16 C15         -4.9550     0.3700    -0.0290 c3         1 GJ5       0.106000
     17 C16         -5.5310    -1.0160     0.3260 c3         1 GJ5      -0.172400
     18 C17         -7.0720    -1.0750     0.2920 c3         1 GJ5       0.306000
     19 F1          -7.5060    -2.3150     0.6110 f          1 GJ5      -0.115000
     20 F2          -7.6120    -0.2050     1.1740 f          1 GJ5      -0.115000
     21 F3          -7.5440    -0.7740    -0.9390 f          1 GJ5      -0.115000
     22 H1           6.5860    -1.1460     1.5990 hc         1 GJ5       0.066700
     23 H2           5.2990    -2.2820     1.2490 hc         1 GJ5       0.066700
     24 H3           3.8610     2.8420    -0.4180 h4         1 GJ5       0.163000
     25 H4           1.6740     3.0740    -0.5490 ha         1 GJ5       0.127000
     26 H5          -0.7530     3.3220    -0.6940 ha         1 GJ5       0.124000
     27 H6          -1.2380    -0.8430     0.4210 ha         1 GJ5       0.124000
     28 H7           1.1790    -1.0850     0.5650 ha         1 GJ5       0.127000
     29 H8          -3.0190    -0.4920     0.2680 hn         1 GJ5       0.315500
     30 H9           7.1720    -3.9760     0.4880 hc         1 GJ5       0.036700
     31 H10          8.3110    -3.4610    -0.7750 hc         1 GJ5       0.036700
     32 H11          8.3840    -2.7230     0.8350 hc         1 GJ5       0.036700
     33 H12          5.1530    -3.3530    -1.1700 hc         1 GJ5       0.036700
     34 H13          5.1600    -1.7390    -1.9160 hc         1 GJ5       0.036700
     35 H14          6.4010    -2.9210    -2.3590 hc         1 GJ5       0.036700
     36 H15          7.3050    -1.1960    -0.7950 hc         1 GJ5       0.046700
     37 H16         -5.3310     1.1220     0.6790 h1         1 GJ5       0.068700
     38 H17         -5.2750     0.6600    -1.0390 h1         1 GJ5       0.068700
     39 H18         -5.1340    -1.7610    -0.3740 hc         1 GJ5       0.082200
     40 H19         -5.1890    -1.3030     1.3280 hc         1 GJ5       0.082200
     41 C14         -2.7050     1.4620    -0.2520 c          1 GJ5       0.612700
     42 C3           7.7030    -3.1130     0.0690 c3         1 GJ5      -0.088600
     43 C1           5.7990    -2.5400    -1.5250 c3         1 GJ5      -0.088600
@<TRIPOS>BOND
     1     1     2 1   
     2     1    13 1   
     3     1    22 1   
     4     1    23 1   
     5     2    11 2   
     6     2    14 1   
     7     3     5 2   
     8     3     6 1   
     9     3    11 1   
    10     4     8 ar  
    11     4     9 ar  
    12     4    41 1   
    13     5    14 1   
    14     5    24 1   
    15     6     7 ar  
    16     6    10 ar  
    17     7     8 ar  
    18     7    25 1   
    19     8    26 1   
    20     9    10 ar  
    21     9    27 1   
    22    10    28 1   
    23    12    16 1   
    24    12    29 1   
    25    12    41 1   
    26    13    36 1   
    27    13    42 1   
    28    13    43 1   
    29    15    41 2   
    30    16    17 1   
    31    16    37 1   
    32    16    38 1   
    33    17    18 1   
    34    17    39 1   
    35    17    40 1   
    36    18    19 1   
    37    18    20 1   
    38    18    21 1   
    39    30    42 1   
    40    31    42 1   
    41    32    42 1   
    42    33    43 1   
    43    34    43 1   
    44    35    43 1   
@<TRIPOS>SUBSTRUCTURE
     1 GJ5         1 TEMP              0 ****  ****    0 ROOT
