@<TRIPOS>MOLECULE
GJ5
   43    44     1     0     0
SMALL
abcg2


@<TRIPOS>ATOM
      1 C4           5.8920    -1.3210     0.7720 c3         1 GJ5      -0.116700
      2 C5           4.9710    -0.2280     0.3540 cc         1 GJ5       0.452700
      3 C6           3.0970     0.8880    -0.0150 cd         1 GJ5       0.337500
      4 C11         -1.1600     1.2600     0.1370 ca         1 GJ5      -0.149600
      5 C7           3.9710     1.7930    -0.5420 cc         1 GJ5      -0.255000
      6 C8           1.6380     1.0280     0.0450 ca         1 GJ5      -0.092500
      7 C9           1.0060     2.2260    -0.2980 ca         1 GJ5      -0.099000
      8 C10         -0.3690     2.3440    -0.2420 ca         1 GJ5      -0.077000
      9 C12         -0.5350     0.0670     0.4890 ca         1 GJ5      -0.077000
     10 C13          0.8450    -0.0460     0.4500 ca         1 GJ5      -0.099000
     11 N1           3.6860    -0.2460     0.4820 nd         1 GJ5      -0.645000
     12 N2          -3.3730     0.3300    -0.0210 ns         1 GJ5      -0.506900
     13 C2           6.5690    -2.0410    -0.4060 c3         1 GJ5      -0.057700
     14 S1           5.5720     1.2100    -0.4070 ss         1 GJ5      -0.034400
     15 O1          -3.1440     2.5340     0.3960 o          1 GJ5      -0.592100
     16 C15         -4.8180     0.3610    -0.0390 c3         1 GJ5       0.106000
     17 C16         -5.3460    -1.0630     0.0860 c3         1 GJ5      -0.172400
     18 C17         -6.8480    -1.1310     0.0930 c3         1 GJ5       0.306000
     19 F1          -7.2860    -2.3950     0.1710 f          1 GJ5      -0.115000
     20 F2          -7.3840    -0.4710     1.1330 f          1 GJ5      -0.115000
     21 F3          -7.3930    -0.6000    -1.0130 f          1 GJ5      -0.115000
     22 H1           6.6610    -0.9160     1.4350 hc         1 GJ5       0.066700
     23 H2           5.3100    -2.0390     1.3530 hc         1 GJ5       0.066700
     24 H3           3.7630     2.7480    -0.9980 h4         1 GJ5       0.163000
     25 H4           1.5880     3.0860    -0.6040 ha         1 GJ5       0.127000
     26 H5          -0.8330     3.2840    -0.5060 ha         1 GJ5       0.124000
     27 H6          -1.1140    -0.7850     0.8240 ha         1 GJ5       0.124000
     28 H7           1.3100    -0.9780     0.7410 ha         1 GJ5       0.127000
     29 H8          -2.9190    -0.4850    -0.4010 hn         1 GJ5       0.315500
     30 H9           6.9840    -3.8600     0.7010 hc         1 GJ5       0.036700
     31 H10          8.0390    -3.6080    -0.6890 hc         1 GJ5       0.036700
     32 H11          8.2790    -2.6660     0.7830 hc         1 GJ5       0.036700
     33 H12          4.8860    -3.3450    -0.8240 hc         1 GJ5       0.036700
     34 H13          4.9160    -1.8940    -1.8270 hc         1 GJ5       0.036700
     35 H14          6.0400    -3.2070    -2.1500 hc         1 GJ5       0.036700
     36 H15          7.1590    -1.3040    -0.9620 hc         1 GJ5       0.046700
     37 H16         -5.1660     0.9710     0.7940 h1         1 GJ5       0.068700
     38 H17         -5.1810     0.8260    -0.9600 h1         1 GJ5       0.068700
     39 H18         -4.9870    -1.6740    -0.7460 hc         1 GJ5       0.082200
     40 H19         -4.9790    -1.5200     1.0070 hc         1 GJ5       0.082200
     41 C14         -2.6400     1.4400     0.1830 c          1 GJ5       0.612700
     42 C3           7.5230    -3.1020     0.1280 c3         1 GJ5      -0.088600
     43 C1           5.5430    -2.6510    -1.3530 c3         1 GJ5      -0.088600
@<TRIPOS>BOND
     1     1     2 1   
     2     1    13 1   
     3     1    22 1   
     4     1    23 1   
     5     2    11 2   
     6     2    14 1   
     7     3     5 2   
     8     3     6 1   
     9     3    11 1   
    10     4     8 ar  
    11     4     9 ar  
    12     4    41 1   
    13     5    14 1   
    14     5    24 1   
    15     6     7 ar  
    16     6    10 ar  
    17     7     8 ar  
    18     7    25 1   
    19     8    26 1   
    20     9    10 ar  
    21     9    27 1   
    22    10    28 1   
    23    12    16 1   
    24    12    29 1   
    25    12    41 1   
    26    13    36 1   
    27    13    42 1   
    28    13    43 1   
    29    15    41 2   
    30    16    17 1   
    31    16    37 1   
    32    16    38 1   
    33    17    18 1   
    34    17    39 1   
    35    17    40 1   
    36    18    19 1   
    37    18    20 1   
    38    18    21 1   
    39    30    42 1   
    40    31    42 1   
    41    32    42 1   
    42    33    43 1   
    43    34    43 1   
    44    35    43 1   
@<TRIPOS>SUBSTRUCTURE
     1 GJ5         1 TEMP              0 ****  ****    0 ROOT
