@<TRIPOS>MOLECULE
GJ6
   36    37     1     0     0
SMALL
No Charge or Current Charge


@<TRIPOS>ATOM
      1 C4           0.9170   -12.2450   -48.0590 ca         1 GJ6       0.125100
      2 C5          -0.3580   -12.3420   -48.6630 ca         1 GJ6      -0.078300
      3 C6          -1.5060   -12.5200   -47.8430 ca         1 GJ6      -0.112300
      4 C11         -4.9500   -11.2490   -51.3190 c3         1 GJ6       0.174500
      5 C7          -0.4800   -12.2380   -50.1960 c6         1 GJ6      -0.027100
      6 C8          -1.8450   -12.6950   -50.7520 c6         1 GJ6      -0.068400
      7 C9          -2.9890   -12.0740   -49.9230 c6         1 GJ6       0.180500
      8 C10         -2.9170   -12.6350   -48.4640 c6         1 GJ6       0.206600
      9 C12         -6.4140   -11.6390   -51.6030 c3         1 GJ6      -0.090100
     10 C13         -4.1750   -10.9620   -52.6240 c3         1 GJ6      -0.090100
     11 N1          -4.3250   -12.3310   -50.5310 n7         1 GJ6      -0.866400
     12 C3           1.0610   -12.3510   -46.6620 ca         1 GJ6       0.047100
     13 C1          -1.3390   -12.6450   -46.4440 ca         1 GJ6      -0.093000
     14 C2          -0.0660   -12.5570   -45.8570 ca         1 GJ6      -0.163000
     15 O1           2.0430   -12.0480   -48.8090 oh         1 GJ6      -0.536100
     16 O2           2.3040   -12.2590   -46.0910 oh         1 GJ6      -0.560100
     17 O3          -3.9080   -11.9850   -47.6450 oh         1 GJ6      -0.664000
     18 H13         -4.9680   -10.3260   -50.7240 h1         1 GJ6       0.019700
     19 H4           0.3100   -12.8280   -50.6790 hc         1 GJ6       0.059700
     20 H3          -0.3040   -11.1950   -50.4910 hc         1 GJ6       0.059700
     21 H5          -1.9190   -12.4150   -51.8100 hc         1 GJ6       0.052700
     22 H6          -1.9140   -13.7910   -50.7170 hc         1 GJ6       0.052700
     23 H7          -2.8300   -10.9860   -49.8670 h1         1 GJ6       0.044700
     24 H8          -3.1460   -13.7100   -48.5190 h1         1 GJ6       0.050700
     25 H15         -6.9600   -11.8070   -50.6670 hc         1 GJ6       0.036533
     26 H16         -6.9260   -10.8390   -52.1510 hc         1 GJ6       0.036533
     27 H14         -6.4670   -12.5550   -52.2040 hc         1 GJ6       0.036533
     28 H18         -3.1860   -10.5410   -52.4080 hc         1 GJ6       0.036533
     29 H19         -4.0490   -11.8750   -53.2170 hc         1 GJ6       0.036533
     30 H17         -4.7150   -10.2290   -53.2350 hc         1 GJ6       0.036533
     31 H20         -4.9520   -12.4820   -49.7310 hn         1 GJ6       0.417000
     32 H1          -2.1970   -12.8140   -45.7960 ha         1 GJ6       0.122000
     33 H2           0.0340   -12.6500   -44.7780 ha         1 GJ6       0.113000
     34 H9           2.7860   -12.0180   -48.1650 ho         1 GJ6       0.481000
     35 H10          2.2130   -12.3560   -45.1170 ho         1 GJ6       0.474000
     36 H11         -3.9490   -12.4870   -46.8040 ho         1 GJ6       0.448000
@<TRIPOS>BOND
     1     1     2 ar  
     2     1    12 ar  
     3     1    15 1   
     4     2     3 ar  
     5     2     5 1   
     6     3     8 1   
     7     3    13 ar  
     8     4     9 1   
     9     4    10 1   
    10     4    11 1   
    11     4    18 1   
    12     5     6 1   
    13     5    19 1   
    14     5    20 1   
    15     6     7 1   
    16     6    21 1   
    17     6    22 1   
    18     7     8 1   
    19     7    11 1   
    20     7    23 1   
    21     8    17 1   
    22     8    24 1   
    23     9    25 1   
    24     9    26 1   
    25     9    27 1   
    26    10    28 1   
    27    10    29 1   
    28    10    30 1   
    29    11    31 1   
    30    12    14 ar  
    31    12    16 1   
    32    13    14 ar  
    33    13    32 1   
    34    14    33 1   
    35    15    34 1   
    36    16    35 1   
    37    17    36 1   
@<TRIPOS>SUBSTRUCTURE
     1 GJ6         1 TEMP              0 ****  ****    0 ROOT
