@<TRIPOS>MOLECULE
GJ6
   36    37     1     0     0
SMALL
abcg2


@<TRIPOS>ATOM
      1 C4           0.8730   -12.4820   -48.1260 ca         1 GJ6       0.125100
      2 C5          -0.3910   -12.6760   -48.6650 ca         1 GJ6      -0.078300
      3 C6          -1.5230   -12.5310   -47.8560 ca         1 GJ6      -0.112300
      4 C11         -4.9420   -11.3370   -51.1720 c3         1 GJ6       0.174500
      5 C7          -0.6440   -12.9880   -50.1100 c6         1 GJ6      -0.027100
      6 C8          -1.7190   -12.0420   -50.6610 c6         1 GJ6      -0.068400
      7 C9          -2.9980   -11.9560   -49.7950 c6         1 GJ6       0.180500
      8 C10         -2.8520   -12.7940   -48.5160 c6         1 GJ6       0.206600
      9 C12         -6.2650   -11.9110   -51.6610 c3         1 GJ6      -0.090100
     10 C13         -4.1760   -10.7150   -52.3320 c3         1 GJ6      -0.090100
     11 N1          -4.1860   -12.4010   -50.5190 n7         1 GJ6      -0.866400
     12 C3           1.0060   -12.1410   -46.7730 ca         1 GJ6       0.047100
     13 C1          -1.3880   -12.1810   -46.5240 ca         1 GJ6      -0.093000
     14 C2          -0.1200   -11.9880   -45.9830 ca         1 GJ6      -0.163000
     15 O1           1.9610   -12.6280   -48.9160 oh         1 GJ6      -0.536100
     16 O2           2.2760   -11.9780   -46.3270 oh         1 GJ6      -0.560100
     17 O3          -3.9520   -12.5120   -47.6850 oh         1 GJ6      -0.664000
     18 H13         -5.1650   -10.5280   -50.4560 h1         1 GJ6       0.019700
     19 H4          -0.9780   -14.0260   -50.2140 hc         1 GJ6       0.059700
     20 H3           0.2590   -12.9000   -50.7110 hc         1 GJ6       0.059700
     21 H5          -1.2770   -11.0490   -50.7630 hc         1 GJ6       0.052700
     22 H6          -1.9950   -12.3660   -51.6640 hc         1 GJ6       0.052700
     23 H7          -3.1210   -10.9140   -49.4610 h1         1 GJ6       0.044700
     24 H8          -2.8760   -13.8520   -48.8230 h1         1 GJ6       0.050700
     25 H15         -6.8410   -12.3450   -50.8410 hc         1 GJ6       0.036533
     26 H16         -6.8780   -11.1330   -52.1180 hc         1 GJ6       0.036533
     27 H14         -6.0960   -12.6910   -52.4060 hc         1 GJ6       0.036533
     28 H18         -3.2530   -10.2320   -52.0100 hc         1 GJ6       0.036533
     29 H19         -3.9220   -11.4700   -53.0780 hc         1 GJ6       0.036533
     30 H17         -4.7880    -9.9530   -52.8160 hc         1 GJ6       0.036533
     31 H20         -4.8150   -12.8310   -49.8520 hn         1 GJ6       0.417000
     32 H1          -2.2560   -12.0560   -45.8920 ha         1 GJ6       0.122000
     33 H2          -0.0110   -11.7180   -44.9390 ha         1 GJ6       0.113000
     34 H9           2.7620   -12.4170   -48.4220 ho         1 GJ6       0.481000
     35 H10          2.2820   -11.6940   -45.4070 ho         1 GJ6       0.474000
     36 H11         -4.0750   -13.2450   -47.0740 ho         1 GJ6       0.448000
@<TRIPOS>BOND
     1     1     2 ar  
     2     1    12 ar  
     3     1    15 1   
     4     2     3 ar  
     5     2     5 1   
     6     3     8 1   
     7     3    13 ar  
     8     4     9 1   
     9     4    10 1   
    10     4    11 1   
    11     4    18 1   
    12     5     6 1   
    13     5    19 1   
    14     5    20 1   
    15     6     7 1   
    16     6    21 1   
    17     6    22 1   
    18     7     8 1   
    19     7    11 1   
    20     7    23 1   
    21     8    17 1   
    22     8    24 1   
    23     9    25 1   
    24     9    26 1   
    25     9    27 1   
    26    10    28 1   
    27    10    29 1   
    28    10    30 1   
    29    11    31 1   
    30    12    14 ar  
    31    12    16 1   
    32    13    14 ar  
    33    13    32 1   
    34    14    33 1   
    35    15    34 1   
    36    16    35 1   
    37    17    36 1   
@<TRIPOS>SUBSTRUCTURE
     1 GJ6         1 TEMP              0 ****  ****    0 ROOT
