@<TRIPOS>MOLECULE
GJ7
   60    64     1     0     0
SMALL
abcg2


@<TRIPOS>ATOM
      1 C1           4.0740     3.8090    -3.2760 c3         1 GJ7      -0.077100
      2 C2           3.2200     2.9990    -2.3170 c3         1 GJ7      -0.153400
      3 C7           2.9720     2.7220     1.4830 c5         1 GJ7       0.090700
      4 C9           1.5180     1.9430    -0.2370 c5         1 GJ7       0.075000
      5 C10          1.1930     1.4520     1.1760 c5         1 GJ7       0.221500
      6 C12         -4.9340     1.7060     0.4070 ca         1 GJ7      -0.118500
      7 C13         -6.0410     1.9930     1.1930 ca         1 GJ7      -0.100000
      8 C14         -7.2830     1.4530     0.8810 ca         1 GJ7      -0.111000
      9 C15         -7.4170     0.6250    -0.2250 ca         1 GJ7      -0.100000
     10 C16         -6.3140     0.3270    -1.0170 ca         1 GJ7      -0.118500
     11 C19         -2.1870    -1.9950     0.3240 ca         1 GJ7      -0.076000
     12 C20         -3.2110    -1.1140    -0.0080 ca         1 GJ7      -0.156000
     13 C21         -3.0580    -0.2710    -1.1000 ca         1 GJ7       0.133100
     14 C22         -1.8950    -0.3200    -1.8630 ca         1 GJ7      -0.156000
     15 C24         -1.0350    -2.0400    -0.4350 ca         1 GJ7       0.086100
     16 N25          3.0980    -5.5160    -0.0300 nt         1 GJ7      -0.615000
     17 C30          3.3730    -1.6000     1.5700 ca         1 GJ7      -0.277000
     18 C31          3.2620    -2.9330     1.2460 ca         1 GJ7       0.012000
     19 C32          2.1020    -3.4620     0.6720 ca         1 GJ7      -0.290600
     20 C33          1.0720    -2.5360     0.4600 ca         1 GJ7       0.678300
     21 C4           3.6130     3.1820    -0.8660 c          1 GJ7       0.609100
     22 C5           1.5400     2.6840     2.0060 c5         1 GJ7      -0.110400
     23 C6           3.4660     1.3260     1.8740 c5         1 GJ7       0.195800
     24 N8           2.7350     2.7140     0.0390 n          1 GJ7      -0.429800
     25 N11          2.2640     0.5430     1.5890 nh         1 GJ7      -0.782300
     26 C17         -5.0820     0.8740    -0.6950 ca         1 GJ7       0.095100
     27 C23         -0.8860    -1.2050    -1.5320 ca         1 GJ7      -0.076000
     28 C29          2.2670    -0.7730     1.3000 ca         1 GJ7       0.683900
     29 N34          1.1530    -1.2650     0.7530 nb         1 GJ7      -0.842000
     30 H1           3.9650     4.8800    -3.1030 hc         1 GJ7       0.042700
     31 H2           5.1300     3.5610    -3.1840 hc         1 GJ7       0.042700
     32 H3           3.7740     3.6080    -4.3030 hc         1 GJ7       0.042700
     33 H4           2.1640     3.2490    -2.4490 hc         1 GJ7       0.056200
     34 H5           3.2980     1.9330    -2.5550 hc         1 GJ7       0.056200
     35 H6           3.6110     3.5400     1.8010 h1         1 GJ7       0.112700
     36 H7           1.6920     1.1180    -0.9300 h1         1 GJ7       0.060200
     37 H8           0.7180     2.5680    -0.6420 h1         1 GJ7       0.060200
     38 H9           0.2050     1.0180     1.2900 h1         1 GJ7       0.116700
     39 H11         -5.9320     2.6430     2.0510 ha         1 GJ7       0.117000
     40 H12         -8.1440     1.6810     1.4960 ha         1 GJ7       0.117000
     41 H13         -8.3820     0.2030    -0.4740 ha         1 GJ7       0.117000
     42 H14         -6.4110    -0.3190    -1.8800 ha         1 GJ7       0.127500
     43 H15         -2.3000    -2.6500     1.1790 ha         1 GJ7       0.129000
     44 H16         -4.1080    -1.0990     0.5960 ha         1 GJ7       0.129500
     45 H17         -1.7830     0.3380    -2.7160 ha         1 GJ7       0.129500
     46 H18          3.9170    -5.0000    -0.2990 hn         1 GJ7       0.309500
     47 H19          3.0900    -6.5020    -0.2310 hn         1 GJ7       0.309500
     48 H20          4.2710    -1.2180     2.0320 ha         1 GJ7       0.130000
     49 H21          4.0960    -3.5880     1.4640 ha         1 GJ7       0.118000
     50 H22          1.4730     2.5170     3.0810 hc         1 GJ7       0.074200
     51 H23          0.9570     3.5630     1.7330 hc         1 GJ7       0.074200
     52 H24          4.3180     1.0070     1.2690 h1         1 GJ7       0.063200
     53 H25          3.7520     1.2730     2.9290 h1         1 GJ7       0.063200
     54 H26          0.0150    -1.2400    -2.1310 ha         1 GJ7       0.129000
     55 C27          1.9640    -4.9090     0.3720 c          1 GJ7       0.639700
     56 O28         -0.0640    -2.9670    -0.1200 os         1 GJ7      -0.337400
     57 O3           4.6630     3.7190    -0.5340 o          1 GJ7      -0.605100
     58 O18         -4.0080     0.6170    -1.5110 os         1 GJ7      -0.256200
     59 O26          0.9100    -5.5150     0.5080 o          1 GJ7      -0.588100
     60 H10         -3.9650     2.1280     0.6450 ha         1 GJ7       0.127500
@<TRIPOS>BOND
     1     1     2 1   
     2     1    30 1   
     3     1    31 1   
     4     1    32 1   
     5     2    21 1   
     6     2    33 1   
     7     2    34 1   
     8     3    22 1   
     9     3    23 1   
    10     3    24 1   
    11     3    35 1   
    12     4     5 1   
    13     4    24 1   
    14     4    36 1   
    15     4    37 1   
    16     5    22 1   
    17     5    25 1   
    18     5    38 1   
    19     6     7 ar  
    20     6    26 ar  
    21     6    60 1   
    22     7     8 ar  
    23     7    39 1   
    24     8     9 ar  
    25     8    40 1   
    26     9    10 ar  
    27     9    41 1   
    28    10    26 ar  
    29    10    42 1   
    30    11    12 ar  
    31    11    15 ar  
    32    11    43 1   
    33    12    13 ar  
    34    12    44 1   
    35    13    14 ar  
    36    13    58 1   
    37    14    27 ar  
    38    14    45 1   
    39    15    27 ar  
    40    15    56 1   
    41    16    46 1   
    42    16    47 1   
    43    16    55 1   
    44    17    18 ar  
    45    17    28 ar  
    46    17    48 1   
    47    18    19 ar  
    48    18    49 1   
    49    19    20 ar  
    50    19    55 1   
    51    20    29 ar  
    52    20    56 1   
    53    21    24 1   
    54    21    57 2   
    55    22    50 1   
    56    22    51 1   
    57    23    25 1   
    58    23    52 1   
    59    23    53 1   
    60    25    28 1   
    61    26    58 1   
    62    27    54 1   
    63    28    29 ar  
    64    55    59 2   
@<TRIPOS>SUBSTRUCTURE
     1 GJ7         1 TEMP              0 ****  ****    0 ROOT
