@<TRIPOS>MOLECULE
GJ7
   60    64     1     0     0
SMALL
No Charge or Current Charge


@<TRIPOS>ATOM
      1 C1           2.6560     3.9950    -3.4350 c3         1 GJ7      -0.077100
      2 C2           2.1190     3.2630    -2.1840 c3         1 GJ7      -0.153400
      3 C7           3.2850     2.7340     1.5350 c5         1 GJ7       0.090700
      4 C9           1.2950     1.9390     0.3700 c5         1 GJ7       0.075000
      5 C10          1.4830     1.3660     1.8200 c5         1 GJ7       0.221500
      6 C12         -4.6170     1.3820     0.0890 ca         1 GJ7      -0.118500
      7 C13         -5.6150     2.0900     0.7810 ca         1 GJ7      -0.100000
      8 C14         -6.9040     2.2080     0.2310 ca         1 GJ7      -0.111000
      9 C15         -7.1940     1.6220    -1.0140 ca         1 GJ7      -0.100000
     10 C16         -6.1960     0.9130    -1.7060 ca         1 GJ7      -0.118500
     11 C19         -2.3270    -2.3160     0.4360 ca         1 GJ7      -0.076000
     12 C20         -3.3210    -1.5220    -0.1650 ca         1 GJ7      -0.156000
     13 C21         -2.9930    -0.6850    -1.2500 ca         1 GJ7       0.133100
     14 C22         -1.6810    -0.6660    -1.7500 ca         1 GJ7      -0.156000
     15 C24         -1.0060    -2.2750    -0.0440 ca         1 GJ7       0.086100
     16 N25          3.1250    -5.8220     0.4910 nt         1 GJ7      -0.615000
     17 C30          3.7490    -1.7000     1.3330 ca         1 GJ7      -0.277000
     18 C31          3.6120    -3.0420     0.9720 ca         1 GJ7       0.012000
     19 C32          2.3200    -3.5320     0.6880 ca         1 GJ7      -0.290600
     20 C33          1.2360    -2.6350     0.7900 ca         1 GJ7       0.678300
     21 C4           3.0270     3.3040    -0.9390 c          1 GJ7       0.609100
     22 C5           2.1170     2.5790     2.5370 c5         1 GJ7      -0.110400
     23 C6           3.9070     1.2940     1.6080 c5         1 GJ7       0.195800
     24 N8           2.5140     2.7880     0.2640 n          1 GJ7      -0.429800
     25 N11          2.6730     0.4620     1.7520 nh         1 GJ7      -0.782300
     26 C17         -4.9110     0.7830    -1.1530 ca         1 GJ7       0.095100
     27 C23         -0.6860    -1.4590    -1.1500 ca         1 GJ7      -0.076000
     28 C29          2.6110    -0.8950     1.4110 ca         1 GJ7       0.683900
     29 N34          1.3860    -1.3510     1.1660 nb         1 GJ7      -0.842000
     30 H1           2.8130     5.0590    -3.2240 hc         1 GJ7       0.042700
     31 H2           3.6090     3.5610    -3.7610 hc         1 GJ7       0.042700
     32 H3           1.9410     3.9110    -4.2630 hc         1 GJ7       0.042700
     33 H4           1.1270     3.6280    -1.8970 hc         1 GJ7       0.056200
     34 H5           1.9020     2.2110    -2.4050 hc         1 GJ7       0.056200
     35 H6           3.9770     3.5700     1.7110 h1         1 GJ7       0.112700
     36 H7           1.2620     1.1430    -0.3860 h1         1 GJ7       0.060200
     37 H8           0.3820     2.5430     0.2910 h1         1 GJ7       0.060200
     38 H9           0.5820     0.9460     2.2940 h1         1 GJ7       0.116700
     39 H11         -5.3890     2.5500     1.7410 ha         1 GJ7       0.117000
     40 H12         -7.6750     2.7570     0.7670 ha         1 GJ7       0.117000
     41 H13         -8.1900     1.7180    -1.4410 ha         1 GJ7       0.117000
     42 H14         -6.4190     0.4610    -2.6700 ha         1 GJ7       0.127500
     43 H15         -2.5770    -2.9590     1.2770 ha         1 GJ7       0.129000
     44 H16         -4.3410    -1.5590     0.2100 ha         1 GJ7       0.129500
     45 H17         -1.4340    -0.0330    -2.5980 ha         1 GJ7       0.129500
     46 H18          3.9650    -5.5160     0.9560 hn         1 GJ7       0.309500
     47 H19          3.0160    -6.7850     0.2100 hn         1 GJ7       0.309500
     48 H20          4.7300    -1.2920     1.5510 ha         1 GJ7       0.130000
     49 H21          4.5000    -3.6670     0.9000 ha         1 GJ7       0.118000
     50 H22          2.4440     2.3560     3.5590 hc         1 GJ7       0.074200
     51 H23          1.4560     3.4540     2.5710 hc         1 GJ7       0.074200
     52 H24          4.4780     1.0560     0.6990 h1         1 GJ7       0.063200
     53 H25          4.5690     1.1850     2.4780 h1         1 GJ7       0.063200
     54 H26          0.3280    -1.4380    -1.5430 ha         1 GJ7       0.129000
     55 C27          2.1100    -4.9590     0.2760 c          1 GJ7       0.639700
     56 O28         -0.0520    -3.0640     0.5610 os         1 GJ7      -0.337400
     57 O3           4.1480     3.7950    -0.9730 o          1 GJ7      -0.605100
     58 O18         -3.9490     0.0950    -1.8590 os         1 GJ7      -0.256200
     59 O26          1.1080    -5.3750    -0.2760 o          1 GJ7      -0.588100
     60 H10         -3.6200     1.3040     0.5150 ha         1 GJ7       0.127500
@<TRIPOS>BOND
     1     1     2 1   
     2     1    30 1   
     3     1    31 1   
     4     1    32 1   
     5     2    21 1   
     6     2    33 1   
     7     2    34 1   
     8     3    22 1   
     9     3    23 1   
    10     3    24 1   
    11     3    35 1   
    12     4     5 1   
    13     4    24 1   
    14     4    36 1   
    15     4    37 1   
    16     5    22 1   
    17     5    25 1   
    18     5    38 1   
    19     6     7 ar  
    20     6    26 ar  
    21     6    60 1   
    22     7     8 ar  
    23     7    39 1   
    24     8     9 ar  
    25     8    40 1   
    26     9    10 ar  
    27     9    41 1   
    28    10    26 ar  
    29    10    42 1   
    30    11    12 ar  
    31    11    15 ar  
    32    11    43 1   
    33    12    13 ar  
    34    12    44 1   
    35    13    14 ar  
    36    13    58 1   
    37    14    27 ar  
    38    14    45 1   
    39    15    27 ar  
    40    15    56 1   
    41    16    46 1   
    42    16    47 1   
    43    16    55 1   
    44    17    18 ar  
    45    17    28 ar  
    46    17    48 1   
    47    18    19 ar  
    48    18    49 1   
    49    19    20 ar  
    50    19    55 1   
    51    20    29 ar  
    52    20    56 1   
    53    21    24 1   
    54    21    57 2   
    55    22    50 1   
    56    22    51 1   
    57    23    25 1   
    58    23    52 1   
    59    23    53 1   
    60    25    28 1   
    61    26    58 1   
    62    27    54 1   
    63    28    29 ar  
    64    55    59 2   
@<TRIPOS>SUBSTRUCTURE
     1 GJ7         1 TEMP              0 ****  ****    0 ROOT
