@<TRIPOS>MOLECULE
GJ8
   49    51     1     0     0
SMALL
bcc


@<TRIPOS>ATOM
      1 C4           4.7940    -0.6810    -0.3600 c          1 GJ8       0.680700
      2 C14         -3.9960    -0.0670     1.2410 c3         1 GJ8       0.177500
      3 C5           3.4070    -0.1730    -0.1430 ca         1 GJ8      -0.150600
      4 C6           2.3850    -1.1000     0.0440 ca         1 GJ8      -0.094000
      5 C11         -0.6160     1.1010     0.5620 cc         1 GJ8       0.403800
      6 C7           1.0830    -0.6850     0.2600 ca         1 GJ8      -0.117500
      7 C8           0.7660     0.6730     0.3180 ca         1 GJ8      -0.087500
      8 C9           1.7950     1.6000     0.1480 ca         1 GJ8      -0.117500
      9 C10          3.0940     1.1850    -0.0820 ca         1 GJ8      -0.094000
     10 C12         -1.0640     2.3890     0.6340 cd         1 GJ8      -0.207400
     11 C13         -2.7460     0.6960     0.9410 cd         1 GJ8       0.413700
     12 N1           5.6390     0.1400    -1.0080 ns         1 GJ8      -0.575900
     13 N2          -5.1720     0.7590     1.0390 n7         1 GJ8      -0.831100
     14 C3           7.0240    -0.1940    -1.2370 c3         1 GJ8       0.112000
     15 N3          -1.5940     0.1570     0.7390 nc         1 GJ8      -0.640000
     16 F1           9.8860     0.4210    -1.2350 f          1 GJ8      -0.238967
     17 C1           9.3310    -0.2280    -0.1980 c3         1 GJ8       0.667900
     18 F2           9.5130    -1.5380    -0.4280 f          1 GJ8      -0.238967
     19 F3          10.0630     0.0770     0.8840 f          1 GJ8      -0.238967
     20 C2           7.8820     0.1230    -0.0100 c3         1 GJ8      -0.179400
     21 O1           5.1270    -1.7950     0.0240 o          1 GJ8      -0.597100
     22 S1          -2.7460     2.4200     0.9300 ss         1 GJ8      -0.085300
     23 S2          -5.8590     0.8040    -0.4620 sy         1 GJ8       1.294200
     24 O2          -6.9220     1.7890    -0.3900 o          1 GJ8      -0.596800
     25 O3          -4.7650     0.9580    -1.4040 o          1 GJ8      -0.596800
     26 C15         -6.5870    -0.7900    -0.7230 ca         1 GJ8      -0.312500
     27 C16         -5.9120    -1.7370    -1.4820 ca         1 GJ8      -0.035000
     28 C17         -6.4800    -2.9930    -1.6470 ca         1 GJ8      -0.146000
     29 C18         -7.7020    -3.2880    -1.0610 ca         1 GJ8      -0.071000
     30 C19         -8.3680    -2.3290    -0.3070 ca         1 GJ8      -0.146000
     31 C20         -7.8150    -1.0710    -0.1340 ca         1 GJ8      -0.035000
     32 H1          -4.0050    -0.9950     0.6620 h1         1 GJ8       0.072200
     33 H2          -3.9890    -0.3630     2.2910 h1         1 GJ8       0.072200
     34 H3           2.6060    -2.1580     0.0110 ha         1 GJ8       0.140000
     35 H4           0.3040    -1.4240     0.3890 ha         1 GJ8       0.144500
     36 H5           1.5940     2.6620     0.2030 ha         1 GJ8       0.144500
     37 H6           3.8610     1.9420    -0.1850 ha         1 GJ8       0.140000
     38 H7          -0.5050     3.3040     0.5160 h4         1 GJ8       0.179000
     39 H8           5.3130     1.0270    -1.3530 hn         1 GJ8       0.320500
     40 H9          -5.8500     0.7360     1.7910 hn         1 GJ8       0.436800
     41 H10          7.1000    -1.2480    -1.5010 h1         1 GJ8       0.068200
     42 H11          7.3590     0.3830    -2.0980 h1         1 GJ8       0.068200
     43 H12          7.8130     1.1870     0.2240 hc         1 GJ8       0.087200
     44 H13          7.5110    -0.4260     0.8570 hc         1 GJ8       0.087200
     45 H14         -4.9630    -1.5060    -1.9460 ha         1 GJ8       0.154500
     46 H15         -5.9650    -3.7360    -2.2400 ha         1 GJ8       0.140000
     47 H16         -8.1390    -4.2690    -1.1920 ha         1 GJ8       0.137000
     48 H17         -9.3250    -2.5590     0.1430 ha         1 GJ8       0.140000
     49 H18         -8.3420    -0.3260     0.4480 ha         1 GJ8       0.154500
@<TRIPOS>BOND
     1     1     3 1   
     2     1    12 1   
     3     1    21 2   
     4     2    11 1   
     5     2    13 1   
     6     2    32 1   
     7     2    33 1   
     8     3     4 ar  
     9     3     9 ar  
    10     4     6 ar  
    11     4    34 1   
    12     5     7 1   
    13     5    10 2   
    14     5    15 1   
    15     6     7 ar  
    16     6    35 1   
    17     7     8 ar  
    18     8     9 ar  
    19     8    36 1   
    20     9    37 1   
    21    10    22 1   
    22    10    38 1   
    23    11    15 2   
    24    11    22 1   
    25    12    14 1   
    26    12    39 1   
    27    13    23 1   
    28    13    40 1   
    29    14    20 1   
    30    14    41 1   
    31    14    42 1   
    32    16    17 1   
    33    17    18 1   
    34    17    19 1   
    35    17    20 1   
    36    20    43 1   
    37    20    44 1   
    38    23    24 2   
    39    23    25 2   
    40    23    26 1   
    41    26    27 ar  
    42    26    31 ar  
    43    27    28 ar  
    44    27    45 1   
    45    28    29 ar  
    46    28    46 1   
    47    29    30 ar  
    48    29    47 1   
    49    30    31 ar  
    50    30    48 1   
    51    31    49 1   
@<TRIPOS>SUBSTRUCTURE
     1 GJ8         1 TEMP              0 ****  ****    0 ROOT
