@<TRIPOS>MOLECULE
GJ8
   49    51     1     0     0
SMALL
No Charge or Current Charge


@<TRIPOS>ATOM
      1 C4           5.0340    -0.4670    -0.2900 c          1 GJ8       0.613700
      2 C14         -3.8180    -0.5600     2.0000 c3         1 GJ8       0.177500
      3 C5           3.5890    -0.1280     0.0200 ca         1 GJ8      -0.150600
      4 C6           2.8280    -1.0030     0.8270 ca         1 GJ8      -0.076000
      5 C11         -0.5510     0.7190     0.9650 cc         1 GJ8       0.338500
      6 C7           1.4870    -0.7190     1.1350 ca         1 GJ8      -0.099500
      7 C8           0.8660     0.4560     0.6620 ca         1 GJ8      -0.087500
      8 C9           1.6180     1.3200    -0.1650 ca         1 GJ8      -0.099500
      9 C10          2.9600     1.0380    -0.4760 ca         1 GJ8      -0.076000
     10 C12         -1.0400     2.0030     0.9260 cd         1 GJ8      -0.269000
     11 C13         -2.6190     0.2700     1.5600 cd         1 GJ8       0.413700
     12 N1           5.7230     0.4250    -1.0860 ns         1 GJ8      -0.508900
     13 N2          -4.9860    -0.5240     1.0730 n7         1 GJ8      -0.886300
     14 C3           7.1290     0.2880    -1.4740 c3         1 GJ8       0.112000
     15 N3          -1.4240    -0.2690     1.3380 nc         1 GJ8      -0.640000
     16 F1           9.8720     1.4000    -1.7730 f          1 GJ8      -0.117667
     17 C1           9.5730     0.6230    -0.7070 c3         1 GJ8       0.304000
     18 F2           9.9110    -0.6510    -1.0070 f          1 GJ8      -0.117667
     19 F3          10.3450     1.0250     0.3280 f          1 GJ8      -0.117667
     20 C2           8.0790     0.7310    -0.3420 c3         1 GJ8      -0.179400
     21 O1           5.5720    -1.4810     0.1360 o          1 GJ8      -0.597100
     22 S1          -2.7410     2.0180     1.3570 ss         1 GJ8       0.059600
     23 S2          -4.7890    -1.1550    -0.4580 sy         1 GJ8       1.152600
     24 O2          -4.2430    -0.0650    -1.2690 o          1 GJ8      -0.526000
     25 O3          -4.1200    -2.4470    -0.2910 o          1 GJ8      -0.526000
     26 C15         -6.5150    -1.4090    -0.8870 ca         1 GJ8      -0.312500
     27 C16         -7.1020    -2.6870    -0.7660 ca         1 GJ8      -0.017000
     28 C17         -8.4550    -2.8720    -1.1010 ca         1 GJ8      -0.128000
     29 C18         -9.2260    -1.7890    -1.5560 ca         1 GJ8      -0.053000
     30 C19         -8.6440    -0.5150    -1.6750 ca         1 GJ8      -0.128000
     31 C20         -7.2920    -0.3220    -1.3420 ca         1 GJ8      -0.017000
     32 H1          -3.4790    -1.5940     2.1540 h1         1 GJ8       0.072200
     33 H2          -4.1210    -0.1860     2.9870 h1         1 GJ8       0.072200
     34 H3           3.2750    -1.9140     1.2190 ha         1 GJ8       0.122000
     35 H4           0.9320    -1.4180     1.7560 ha         1 GJ8       0.126500
     36 H5           1.1670     2.2150    -0.5860 ha         1 GJ8       0.126500
     37 H6           3.4930     1.7400    -1.1130 ha         1 GJ8       0.122000
     38 H7          -0.5230     2.9240     0.6940 h4         1 GJ8       0.161000
     39 H8           5.2140     1.2380    -1.4070 hn         1 GJ8       0.320500
     40 H9          -5.7460    -1.1030     1.4320 hn         1 GJ8       0.492000
     41 H10          7.3280    -0.7590    -1.7430 h1         1 GJ8       0.068200
     42 H11          7.3050     0.9020    -2.3680 h1         1 GJ8       0.068200
     43 H12          7.8560     1.7690    -0.0700 hc         1 GJ8       0.087200
     44 H13          7.8910     0.1210     0.5490 hc         1 GJ8       0.087200
     45 H14         -6.5190    -3.5380    -0.4160 ha         1 GJ8       0.136500
     46 H15         -8.9060    -3.8570    -1.0080 ha         1 GJ8       0.122000
     47 H16        -10.2730    -1.9350    -1.8140 ha         1 GJ8       0.119000
     48 H17         -9.2410     0.3240    -2.0250 ha         1 GJ8       0.122000
     49 H18         -6.8540     0.6710    -1.4350 ha         1 GJ8       0.136500
@<TRIPOS>BOND
     1     1     3 1   
     2     1    12 1   
     3     1    21 2   
     4     2    11 1   
     5     2    13 1   
     6     2    32 1   
     7     2    33 1   
     8     3     4 ar  
     9     3     9 ar  
    10     4     6 ar  
    11     4    34 1   
    12     5     7 1   
    13     5    10 2   
    14     5    15 1   
    15     6     7 ar  
    16     6    35 1   
    17     7     8 ar  
    18     8     9 ar  
    19     8    36 1   
    20     9    37 1   
    21    10    22 1   
    22    10    38 1   
    23    11    15 2   
    24    11    22 1   
    25    12    14 1   
    26    12    39 1   
    27    13    23 1   
    28    13    40 1   
    29    14    20 1   
    30    14    41 1   
    31    14    42 1   
    32    16    17 1   
    33    17    18 1   
    34    17    19 1   
    35    17    20 1   
    36    20    43 1   
    37    20    44 1   
    38    23    24 2   
    39    23    25 2   
    40    23    26 1   
    41    26    27 ar  
    42    26    31 ar  
    43    27    28 ar  
    44    27    45 1   
    45    28    29 ar  
    46    28    46 1   
    47    29    30 ar  
    48    29    47 1   
    49    30    31 ar  
    50    30    48 1   
    51    31    49 1   
@<TRIPOS>SUBSTRUCTURE
     1 GJ8         1 TEMP              0 ****  ****    0 ROOT
