@<TRIPOS>MOLECULE
GJ9
   75    79     1     0     0
SMALL
No Charge or Current Charge


@<TRIPOS>ATOM
      1 C02        163.7490   162.6300   181.1990 c6         1 GJ9       0.174300
      2 C03        163.8080   162.0240   179.7780 c6         1 GJ9      -0.106900
      3 C04        164.9590   162.6540   178.9610 c6         1 GJ9       0.217800
      4 C06        164.2690   164.7840   177.8210 cc         1 GJ9       0.740300
      5 C08        163.5120   164.9850   175.7430 cd         1 GJ9       0.257300
      6 C09        163.2030   164.4010   174.3890 c3         1 GJ9       0.081300
      7 C11        161.9030   162.2600   174.9000 c3         1 GJ9       0.101600
      8 C12        162.1190   161.1640   175.9700 c3         1 GJ9       0.183800
      9 C14        162.9190   158.8630   176.5240 ca         1 GJ9       0.214000
     10 C15        163.9970   158.6210   177.4450 ca         1 GJ9       0.262000
     11 C17        166.0980   159.1580   178.3580 ca         1 GJ9       0.353900
     12 C18        166.0410   158.1010   179.2720 ca         1 GJ9      -0.174000
     13 C19        164.9140   157.2710   179.2740 ca         1 GJ9      -0.046000
     14 C20        163.8810   157.5330   178.3540 ca         1 GJ9      -0.086000
     15 C21        162.7410   156.7170   178.3690 ca         1 GJ9      -0.082000
     16 C22        161.6820   156.9460   177.4820 ca         1 GJ9      -0.090300
     17 C23        160.4420   156.0620   177.5990 c3         1 GJ9      -0.048800
     18 C24        161.7800   158.0020   176.5430 ca         1 GJ9       0.180100
     19 C26        160.4750   157.2820   174.5810 c3         1 GJ9       0.161600
     20 C27        161.6860   157.2210   173.6240 c3         1 GJ9      -0.073400
     21 C28        161.4680   156.2670   172.4230 c3         1 GJ9      -0.215400
     22 C29        162.7060   156.2680   171.5110 c          1 GJ9       0.725000
     23 C32        164.0840   160.0940   174.6560 c3         1 GJ9       0.191800
     24 C33        163.7470   160.6760   173.2680 c3         1 GJ9      -0.118400
     25 C34        163.8100   162.2120   173.2050 c3         1 GJ9       0.109600
     26 C35        163.2430   166.2570   176.1810 cc         1 GJ9      -0.247000
     27 C37        164.8130   164.7520   180.2750 c6         1 GJ9       0.217800
     28 C38        163.6580   164.1740   181.1250 c6         1 GJ9      -0.106900
     29 N05        164.7960   164.1350   178.9230 nh         1 GJ9      -0.753300
     30 N07        164.1080   164.1470   176.6770 nd         1 GJ9      -0.797000
     31 N10        163.2170   162.8770   174.4330 nx         1 GJ9      -0.666000
     32 N13        162.9430   159.9740   175.6070 nh         1 GJ9      -0.771400
     33 N16        165.1110   159.4150   177.4740 nb         1 GJ9      -0.700000
     34 O01        162.6220   162.1030   181.9050 oh         1 GJ9      -0.648000
     35 O25        160.7470   158.2220   175.6420 os         1 GJ9      -0.379100
     36 O30        162.7600   157.0970   170.6150 o          1 GJ9      -0.739000
     37 O31        163.5980   155.4700   171.7510 o          1 GJ9      -0.739000
     38 S36        163.7460   166.4580   177.8370 ss         1 GJ9      -0.035400
     39 H021       164.6760   162.3610   181.7260 h1         1 GJ9       0.030700
     40 H031       162.8560   162.1920   179.2570 hc         1 GJ9       0.067700
     41 H032       163.9480   160.9370   179.8380 hc         1 GJ9       0.067700
     42 H041       164.9790   162.2090   177.9560 h1         1 GJ9       0.056700
     43 H042       165.9190   162.3970   179.4330 h1         1 GJ9       0.056700
     44 H092       163.9630   164.7360   173.6800 hx         1 GJ9       0.098200
     45 H091       162.2280   164.7440   174.0330 hx         1 GJ9       0.098200
     46 H111       161.2860   163.0460   175.3420 hx         1 GJ9       0.098200
     47 H112       161.3700   161.8440   174.0420 hx         1 GJ9       0.098200
     48 H121       162.5700   161.6470   176.8470 h1         1 GJ9       0.062200
     49 H122       161.1220   160.8240   176.2810 h1         1 GJ9       0.062200
     50 H171       166.9590   159.8250   178.3320 h4         1 GJ9       0.008100
     51 H181       166.8590   157.9340   179.9670 ha         1 GJ9       0.127000
     52 H191       164.8420   156.4450   179.9790 ha         1 GJ9       0.123000
     53 H211       162.6720   155.9030   179.0880 ha         1 GJ9       0.120000
     54 H233       160.5340   155.1690   176.9700 hc         1 GJ9       0.052033
     55 H232       160.2930   155.7210   178.6300 hc         1 GJ9       0.052033
     56 H231       159.5290   156.5940   177.3070 hc         1 GJ9       0.052033
     57 H261       159.5910   157.6070   174.0180 h1         1 GJ9       0.042200
     58 H262       160.2680   156.2800   174.9720 h1         1 GJ9       0.042200
     59 H272       162.5770   156.8980   174.1770 hc         1 GJ9       0.041200
     60 H271       161.8870   158.2290   173.2460 hc         1 GJ9       0.041200
     61 H281       160.5950   156.6570   171.8850 hc         1 GJ9       0.024700
     62 H282       161.3110   155.2710   172.8560 hc         1 GJ9       0.024700
     63 H321       164.4920   159.0870   174.4880 h1         1 GJ9       0.055700
     64 H322       164.8930   160.6880   175.1040 h1         1 GJ9       0.055700
     65 H331       162.7530   160.3360   172.9620 hc         1 GJ9       0.116700
     66 H332       164.4500   160.2750   172.5300 hc         1 GJ9       0.116700
     67 H341       164.8530   162.5290   173.1200 hx         1 GJ9       0.081200
     68 H342       163.2720   162.5590   172.3190 hx         1 GJ9       0.081200
     69 H351       162.7810   167.0760   175.6470 h4         1 GJ9       0.174000
     70 H372       165.7700   164.5290   180.7710 h1         1 GJ9       0.056700
     71 H371       164.7330   165.8470   180.2370 h1         1 GJ9       0.056700
     72 H382       163.6960   164.6050   182.1350 hc         1 GJ9       0.067700
     73 H381       162.6970   164.4750   180.6870 hc         1 GJ9       0.067700
     74 H101       163.8760   162.7080   175.2350 hn         1 GJ9       0.521000
     75 H011       162.6920   162.4240   182.8310 ho         1 GJ9       0.448000
@<TRIPOS>BOND
     1     1     2 1   
     2     1    28 1   
     3     1    34 1   
     4     1    39 1   
     5     2     3 1   
     6     2    40 1   
     7     2    41 1   
     8     3    29 1   
     9     3    42 1   
    10     3    43 1   
    11     4    29 1   
    12     4    30 2   
    13     4    38 1   
    14     5     6 1   
    15     5    26 2   
    16     5    30 1   
    17     6    31 1   
    18     6    44 1   
    19     6    45 1   
    20     7     8 1   
    21     7    31 1   
    22     7    46 1   
    23     7    47 1   
    24     8    32 1   
    25     8    48 1   
    26     8    49 1   
    27     9    10 ar  
    28     9    18 ar  
    29     9    32 1   
    30    10    14 ar  
    31    10    33 ar  
    32    11    12 ar  
    33    11    33 ar  
    34    11    50 1   
    35    12    13 ar  
    36    12    51 1   
    37    13    14 ar  
    38    13    52 1   
    39    14    15 ar  
    40    15    16 ar  
    41    15    53 1   
    42    16    17 1   
    43    16    18 ar  
    44    17    54 1   
    45    17    55 1   
    46    17    56 1   
    47    18    35 1   
    48    19    20 1   
    49    19    35 1   
    50    19    57 1   
    51    19    58 1   
    52    20    21 1   
    53    20    59 1   
    54    20    60 1   
    55    21    22 1   
    56    21    61 1   
    57    21    62 1   
    58    22    36 1   
    59    22    37 1   
    60    23    24 1   
    61    23    32 1   
    62    23    63 1   
    63    23    64 1   
    64    24    25 1   
    65    24    65 1   
    66    24    66 1   
    67    25    31 1   
    68    25    67 1   
    69    25    68 1   
    70    26    38 1   
    71    26    69 1   
    72    27    28 1   
    73    27    29 1   
    74    27    70 1   
    75    27    71 1   
    76    28    72 1   
    77    28    73 1   
    78    31    74 1   
    79    34    75 1   
@<TRIPOS>SUBSTRUCTURE
     1 GJ9         1 TEMP              0 ****  ****    0 ROOT
