@<TRIPOS>MOLECULE
GJ9
   75    79     1     0     0
SMALL
abcg2


@<TRIPOS>ATOM
      1 C02        165.1550   163.5390   181.6690 c6         1 GJ9       0.174300
      2 C03        165.0970   162.5820   180.4930 c6         1 GJ9      -0.106900
      3 C04        165.2170   163.3300   179.1760 c6         1 GJ9       0.217800
      4 C06        163.7590   164.7380   177.8700 cc         1 GJ9       0.740300
      5 C08        163.3430   164.6210   175.7070 cd         1 GJ9       0.257300
      6 C09        163.5500   163.9500   174.3920 c3         1 GJ9       0.081300
      7 C11        162.2210   161.9270   174.9700 c3         1 GJ9       0.101600
      8 C12        162.3100   160.8410   176.0240 c3         1 GJ9       0.183800
      9 C14        162.6130   158.5230   176.4700 ca         1 GJ9       0.214000
     10 C15        163.4350   158.3450   177.6220 ca         1 GJ9       0.262000
     11 C17        165.2110   159.0340   178.8930 ca         1 GJ9       0.353900
     12 C18        165.0370   157.9930   179.8250 ca         1 GJ9      -0.174000
     13 C19        164.0060   157.1180   179.6310 ca         1 GJ9      -0.046000
     14 C20        163.1630   157.2770   178.5120 ca         1 GJ9      -0.086000
     15 C21        162.0500   156.4420   178.2790 ca         1 GJ9      -0.082000
     16 C22        161.2300   156.6320   177.2020 ca         1 GJ9      -0.090300
     17 C23        160.0010   155.7920   177.0150 c3         1 GJ9      -0.048800
     18 C24        161.5340   157.6800   176.2830 ca         1 GJ9       0.180100
     19 C26        160.7590   156.9660   174.1500 c3         1 GJ9       0.161600
     20 C27        161.4900   157.5690   172.9700 c3         1 GJ9      -0.073400
     21 C28        161.4440   156.6560   171.7560 c3         1 GJ9      -0.215400
     22 C29        162.1240   157.2120   170.4850 c          1 GJ9       0.725000
     23 C32        164.1370   159.6130   174.9020 c3         1 GJ9       0.191800
     24 C33        164.0740   160.2550   173.5160 c3         1 GJ9      -0.118400
     25 C34        164.2310   161.7660   173.4720 c3         1 GJ9       0.109600
     26 C35        162.5800   165.7050   175.9550 cc         1 GJ9      -0.247000
     27 C37        164.1760   165.3210   180.2000 c6         1 GJ9       0.217800
     28 C38        164.0510   164.5770   181.5200 c6         1 GJ9      -0.106900
     29 N05        164.2220   164.3910   179.0840 nh         1 GJ9      -0.753300
     30 N07        164.0100   164.0840   176.7710 nd         1 GJ9      -0.797000
     31 N10        163.5700   162.4720   174.6120 nx         1 GJ9      -0.666000
     32 N13        162.8330   159.5780   175.5510 nh         1 GJ9      -0.771400
     33 N16        164.4530   159.2080   177.8410 nb         1 GJ9      -0.700000
     34 O01        165.0310   162.7890   182.8560 oh         1 GJ9      -0.648000
     35 O25        160.6890   157.8850   175.2480 os         1 GJ9      -0.379100
     36 O30        161.9380   156.5540   169.4420 o          1 GJ9      -0.739000
     37 O31        162.8040   158.2510   170.5990 o          1 GJ9      -0.739000
     38 S36        162.7040   166.1160   177.6320 ss         1 GJ9      -0.035400
     39 H021       166.1240   164.0620   181.6390 h1         1 GJ9       0.030700
     40 H031       164.1550   162.0260   180.5170 hc         1 GJ9       0.067700
     41 H032       165.9100   161.8550   180.5510 hc         1 GJ9       0.067700
     42 H041       165.0750   162.6420   178.3460 h1         1 GJ9       0.056700
     43 H042       166.2220   163.7600   179.0760 h1         1 GJ9       0.056700
     44 H092       164.5190   164.2170   173.9660 hx         1 GJ9       0.098200
     45 H091       162.7730   164.1850   173.6660 hx         1 GJ9       0.098200
     46 H111       161.6370   162.7500   175.3780 hx         1 GJ9       0.098200
     47 H112       161.7320   161.5920   174.0560 hx         1 GJ9       0.098200
     48 H121       162.8760   161.2380   176.8820 h1         1 GJ9       0.062200
     49 H122       161.2900   160.6800   176.3780 h1         1 GJ9       0.062200
     50 H171       166.0140   159.7500   179.0350 h4         1 GJ9       0.008100
     51 H181       165.7050   157.9060   180.6700 ha         1 GJ9       0.127000
     52 H191       163.8220   156.3060   180.3250 ha         1 GJ9       0.123000
     53 H211       161.8350   155.6540   178.9920 ha         1 GJ9       0.120000
     54 H233       160.0740   155.1370   176.1460 hc         1 GJ9       0.052033
     55 H232       159.8370   155.1590   177.8860 hc         1 GJ9       0.052033
     56 H231       159.1140   156.4100   176.8750 hc         1 GJ9       0.052033
     57 H261       159.7290   156.7180   173.8800 h1         1 GJ9       0.042200
     58 H262       161.2470   156.0350   174.4570 h1         1 GJ9       0.042200
     59 H272       162.5260   157.7660   173.2510 hc         1 GJ9       0.041200
     60 H271       161.0400   158.5360   172.7290 hc         1 GJ9       0.041200
     61 H281       160.4060   156.4080   171.5110 hc         1 GJ9       0.024700
     62 H282       161.9170   155.6960   171.9970 hc         1 GJ9       0.024700
     63 H321       164.4600   158.5800   174.7760 h1         1 GJ9       0.055700
     64 H322       164.9080   160.0980   175.5160 h1         1 GJ9       0.055700
     65 H331       163.1530   159.9520   173.0210 hc         1 GJ9       0.116700
     66 H332       164.8880   159.8560   172.9080 hc         1 GJ9       0.116700
     67 H341       165.2790   162.0590   173.5200 hx         1 GJ9       0.081200
     68 H342       163.8060   162.1710   172.5550 hx         1 GJ9       0.081200
     69 H351       161.9720   166.2810   175.2760 h4         1 GJ9       0.174000
     70 H372       165.0780   165.9450   180.2010 h1         1 GJ9       0.056700
     71 H371       163.3220   165.9900   180.0910 h1         1 GJ9       0.056700
     72 H382       164.0960   165.3070   182.3330 hc         1 GJ9       0.067700
     73 H381       163.0770   164.0830   181.5720 hc         1 GJ9       0.067700
     74 H101       164.1630   162.3530   175.4420 hn         1 GJ9       0.521000
     75 H011       165.1150   163.3890   183.6040 ho         1 GJ9       0.448000
@<TRIPOS>BOND
     1     1     2 1   
     2     1    28 1   
     3     1    34 1   
     4     1    39 1   
     5     2     3 1   
     6     2    40 1   
     7     2    41 1   
     8     3    29 1   
     9     3    42 1   
    10     3    43 1   
    11     4    29 1   
    12     4    30 2   
    13     4    38 1   
    14     5     6 1   
    15     5    26 2   
    16     5    30 1   
    17     6    31 1   
    18     6    44 1   
    19     6    45 1   
    20     7     8 1   
    21     7    31 1   
    22     7    46 1   
    23     7    47 1   
    24     8    32 1   
    25     8    48 1   
    26     8    49 1   
    27     9    10 ar  
    28     9    18 ar  
    29     9    32 1   
    30    10    14 ar  
    31    10    33 ar  
    32    11    12 ar  
    33    11    33 ar  
    34    11    50 1   
    35    12    13 ar  
    36    12    51 1   
    37    13    14 ar  
    38    13    52 1   
    39    14    15 ar  
    40    15    16 ar  
    41    15    53 1   
    42    16    17 1   
    43    16    18 ar  
    44    17    54 1   
    45    17    55 1   
    46    17    56 1   
    47    18    35 1   
    48    19    20 1   
    49    19    35 1   
    50    19    57 1   
    51    19    58 1   
    52    20    21 1   
    53    20    59 1   
    54    20    60 1   
    55    21    22 1   
    56    21    61 1   
    57    21    62 1   
    58    22    36 1   
    59    22    37 1   
    60    23    24 1   
    61    23    32 1   
    62    23    63 1   
    63    23    64 1   
    64    24    25 1   
    65    24    65 1   
    66    24    66 1   
    67    25    31 1   
    68    25    67 1   
    69    25    68 1   
    70    26    38 1   
    71    26    69 1   
    72    27    28 1   
    73    27    29 1   
    74    27    70 1   
    75    27    71 1   
    76    28    72 1   
    77    28    73 1   
    78    31    74 1   
    79    34    75 1   
@<TRIPOS>SUBSTRUCTURE
     1 GJ9         1 TEMP              0 ****  ****    0 ROOT
