@<TRIPOS>MOLECULE
GJA
   57    60     1     0     0
SMALL
No Charge or Current Charge


@<TRIPOS>ATOM
      1 C2          -3.2260     0.6440    -0.2970 ca         1 GJA       0.682300
      2 C3          -4.6090     0.3650    -0.3370 ca         1 GJA      -0.294600
      3 C9          -1.4830     2.2870    -0.0110 ca         1 GJA       0.117100
      4 C10         -0.6080     2.7330    -1.0160 ca         1 GJA      -0.098000
      5 C11          0.7290     3.0340    -0.6980 ca         1 GJA      -0.112500
      6 C12          1.1850     2.8890     0.6270 ca         1 GJA       0.094100
      7 C13          0.3000     2.4780     1.6370 ca         1 GJA      -0.112500
      8 C14         -1.0360     2.1740     1.3190 ca         1 GJA      -0.098000
      9 C15         -5.6210     1.4670    -0.4570 c          1 GJA       0.641700
     10 C19          0.4850    -3.5390    -0.1760 c5         1 GJA       0.089700
     11 C20         -0.1910    -2.1390    -0.1090 c5         1 GJA       0.215800
     12 C22         -0.4120    -4.3550     0.7860 c5         1 GJA      -0.109400
     13 C30          5.8530     2.8500    -0.5380 ca         1 GJA      -0.079500
     14 C31          5.7510     1.6110    -1.1930 ca         1 GJA      -0.147000
     15 C32          4.5540     0.8770    -1.1310 ca         1 GJA      -0.079500
     16 C33          3.4560     1.3830    -0.4140 ca         1 GJA      -0.162500
     17 N1          -2.2940    -0.3240    -0.2050 nb         1 GJA      -0.841000
     18 C4          -5.0130    -0.9850    -0.2670 ca         1 GJA       0.015000
     19 C5          -4.0280    -1.9710    -0.1630 ca         1 GJA      -0.286000
     20 C6          -2.6850    -1.5920    -0.1350 ca         1 GJA       0.692900
     21 N7          -1.6340    -2.5140    -0.0270 nh         1 GJA      -0.789300
     22 O8          -2.7750     1.9470    -0.3390 os         1 GJA      -0.341400
     23 O16         -5.3630     2.6030    -0.8090 o          1 GJA      -0.589100
     24 N17         -6.9080     1.1570    -0.1990 nt         1 GJA      -0.616000
     25 C18         -1.8200    -3.9570     0.2720 c5         1 GJA       0.230800
     26 O24          2.7590    -2.5190    -1.3680 o          1 GJA      -0.604100
     27 C25          4.1140    -2.8170     0.5740 ce         1 GJA      -0.304200
     28 C26          5.3310    -2.5680     0.0300 c2         1 GJA      -0.224000
     29 O27          2.4960     3.1520     0.9490 os         1 GJA      -0.256200
     30 C28          3.5520     2.6330     0.2330 ca         1 GJA       0.135100
     31 C29          4.7540     3.3580     0.1770 ca         1 GJA      -0.162500
     32 H1          -0.9610     2.8260    -2.0400 ha         1 GJA       0.132500
     33 H2           1.4100     3.3670    -1.4780 ha         1 GJA       0.130500
     34 H3           0.6540     2.3780     2.6600 ha         1 GJA       0.130500
     35 H4          -1.7170     1.8350     2.0950 ha         1 GJA       0.132500
     36 H5           0.5150    -3.9540    -1.1940 h1         1 GJA       0.096700
     37 H6           0.1180    -1.5750     0.7830 h1         1 GJA       0.066200
     38 H7           0.0450    -1.5400    -1.0000 h1         1 GJA       0.066200
     39 H8          -0.2330    -5.4350     0.7260 hc         1 GJA       0.060700
     40 H9          -0.2850    -4.0530     1.8330 hc         1 GJA       0.060700
     41 H10          6.7820     3.4150    -0.5830 ha         1 GJA       0.119000
     42 H11          6.6010     1.2170    -1.7470 ha         1 GJA       0.112000
     43 H12          4.4760    -0.0840    -1.6360 ha         1 GJA       0.119000
     44 H13          2.5400     0.8010    -0.3610 ha         1 GJA       0.126500
     45 H14         -6.0590    -1.2810    -0.3060 ha         1 GJA       0.117000
     46 H15         -4.3130    -3.0160    -0.1160 ha         1 GJA       0.127000
     47 H16         -7.1580     0.2290     0.1060 hn         1 GJA       0.309500
     48 H17         -7.6110     1.8750    -0.2850 hn         1 GJA       0.309500
     49 H18         -2.0920    -4.5160    -0.6340 h1         1 GJA       0.052200
     50 H19         -2.5860    -4.1370     1.0390 h1         1 GJA       0.052200
     51 H20          1.9670    -3.7280     1.4480 hn         1 GJA       0.313500
     52 H21          4.0320    -3.0440     1.6360 ha         1 GJA       0.177000
     53 H22          5.4590    -2.3690    -1.0360 ha         1 GJA       0.177500
     54 H23          6.2390    -2.5590     0.6350 ha         1 GJA       0.177500
     55 H24          4.8310     4.3160     0.6850 ha         1 GJA       0.126500
     56 N21          1.7920    -3.4320     0.4960 ns         1 GJA      -0.498900
     57 C23          2.8440    -2.8790    -0.2030 c          1 GJA       0.605300
@<TRIPOS>BOND
     1     1     2 ar  
     2     1    17 ar  
     3     1    22 1   
     4     2     9 1   
     5     2    18 ar  
     6     3     4 ar  
     7     3     8 ar  
     8     3    22 1   
     9     4     5 ar  
    10     4    32 1   
    11     5     6 ar  
    12     5    33 1   
    13     6     7 ar  
    14     6    29 1   
    15     7     8 ar  
    16     7    34 1   
    17     8    35 1   
    18     9    23 2   
    19     9    24 1   
    20    10    11 1   
    21    10    12 1   
    22    10    36 1   
    23    10    56 1   
    24    11    21 1   
    25    11    37 1   
    26    11    38 1   
    27    12    25 1   
    28    12    39 1   
    29    12    40 1   
    30    13    14 ar  
    31    13    31 ar  
    32    13    41 1   
    33    14    15 ar  
    34    14    42 1   
    35    15    16 ar  
    36    15    43 1   
    37    16    30 ar  
    38    16    44 1   
    39    17    20 ar  
    40    18    19 ar  
    41    18    45 1   
    42    19    20 ar  
    43    19    46 1   
    44    20    21 1   
    45    21    25 1   
    46    24    47 1   
    47    24    48 1   
    48    25    49 1   
    49    25    50 1   
    50    26    57 2   
    51    27    28 2   
    52    27    52 1   
    53    27    57 1   
    54    28    53 1   
    55    28    54 1   
    56    29    30 1   
    57    30    31 ar  
    58    31    55 1   
    59    51    56 1   
    60    56    57 1   
@<TRIPOS>SUBSTRUCTURE
     1 GJA         1 TEMP              0 ****  ****    0 ROOT
