@<TRIPOS>MOLECULE
GJA
   57    60     1     0     0
SMALL
abcg2


@<TRIPOS>ATOM
      1 C2          -3.2520     0.6840    -0.1580 ca         1 GJA       0.682300
      2 C3          -4.6120     0.3670    -0.2780 ca         1 GJA      -0.294600
      3 C9          -1.5760     2.3110     0.0350 ca         1 GJA       0.117100
      4 C10         -0.9160     2.8360    -1.0630 ca         1 GJA      -0.098000
      5 C11          0.4100     3.2280    -0.9460 ca         1 GJA      -0.112500
      6 C12          1.0600     3.0820     0.2690 ca         1 GJA       0.094100
      7 C13          0.3960     2.5620     1.3700 ca         1 GJA      -0.112500
      8 C14         -0.9310     2.1800     1.2550 ca         1 GJA      -0.098000
      9 C15         -5.6730     1.3940    -0.4330 c          1 GJA       0.641700
     10 C19          0.6360    -3.1810    -0.1190 c5         1 GJA       0.089700
     11 C20         -0.1630    -1.8900     0.0920 c5         1 GJA       0.215800
     12 C22         -0.2760    -4.2540     0.4720 c5         1 GJA      -0.109400
     13 C30          5.7340     2.3760    -0.2750 ca         1 GJA      -0.079500
     14 C31          5.5350     1.0980    -0.7840 ca         1 GJA      -0.147000
     15 C32          4.2420     0.6100    -0.8970 ca         1 GJA      -0.079500
     16 C33          3.1510     1.3780    -0.5070 ca         1 GJA      -0.162500
     17 N1          -2.2920    -0.1990    -0.0700 nb         1 GJA      -0.841000
     18 C4          -4.8950    -1.0020    -0.3160 ca         1 GJA       0.015000
     19 C5          -3.9070    -1.9540    -0.2350 ca         1 GJA      -0.286000
     20 C6          -2.5780    -1.5040    -0.1020 ca         1 GJA       0.692900
     21 N7          -1.5360    -2.3450    -0.0020 nh         1 GJA      -0.789300
     22 O8          -2.9060     1.9850    -0.0960 os         1 GJA      -0.341400
     23 O16         -5.4920     2.4470    -1.0280 o          1 GJA      -0.589100
     24 N17         -6.8650     1.0650     0.1000 nt         1 GJA      -0.616000
     25 C18         -1.6650    -3.7930     0.0560 c5         1 GJA       0.230800
     26 O24          3.1310    -2.8450    -1.4220 o          1 GJA      -0.604100
     27 C25          4.3040    -2.9590     0.6490 ce         1 GJA      -0.304200
     28 C26          5.5160    -2.7960     0.1320 c2         1 GJA      -0.224000
     29 O27          2.3640     3.4880     0.4050 os         1 GJA      -0.256200
     30 C28          3.3640     2.6570    -0.0040 ca         1 GJA       0.135100
     31 C29          4.6580     3.1570     0.1140 ca         1 GJA      -0.162500
     32 H1          -1.4330     2.9420    -2.0080 ha         1 GJA       0.132500
     33 H2           0.9300     3.6430    -1.8000 ha         1 GJA       0.130500
     34 H3           0.9110     2.4570     2.3160 ha         1 GJA       0.130500
     35 H4          -1.4530     1.7750     2.1110 ha         1 GJA       0.132500
     36 H5           0.7620    -3.3580    -1.1870 h1         1 GJA       0.096700
     37 H6           0.0520    -1.4560     1.0750 h1         1 GJA       0.066200
     38 H7           0.0610    -1.1310    -0.6580 h1         1 GJA       0.066200
     39 H8          -0.0410    -5.2540     0.1110 hc         1 GJA       0.060700
     40 H9          -0.1910    -4.2570     1.5620 hc         1 GJA       0.060700
     41 H10          6.7360     2.7730    -0.1780 ha         1 GJA       0.119000
     42 H11          6.3780     0.4930    -1.0880 ha         1 GJA       0.112000
     43 H12          4.0680    -0.3840    -1.2890 ha         1 GJA       0.119000
     44 H13          2.1520     0.9730    -0.6050 ha         1 GJA       0.126500
     45 H14         -5.9190    -1.3330    -0.4410 ha         1 GJA       0.117000
     46 H15         -4.1500    -3.0050    -0.2950 ha         1 GJA       0.127000
     47 H16         -6.9830     0.2820     0.7190 hn         1 GJA       0.309500
     48 H17         -7.6440     1.6970     0.0050 hn         1 GJA       0.309500
     49 H18         -1.9490    -4.2010    -0.9200 h1         1 GJA       0.052200
     50 H19         -2.4280    -4.0960     0.7760 h1         1 GJA       0.052200
     51 H20          1.9910    -3.2160     1.4850 hn         1 GJA       0.313500
     52 H21          4.1770    -3.0810     1.7190 ha         1 GJA       0.177000
     53 H22          5.6680    -2.6700    -0.9320 ha         1 GJA       0.177500
     54 H23          6.3960    -2.7840     0.7600 ha         1 GJA       0.177500
     55 H24          4.8150     4.1530     0.5090 ha         1 GJA       0.126500
     56 N21          1.9420    -3.1500     0.4800 ns         1 GJA      -0.498900
     57 C23          3.0880    -2.9760    -0.2050 c          1 GJA       0.605300
@<TRIPOS>BOND
     1     1     2 ar  
     2     1    17 ar  
     3     1    22 1   
     4     2     9 1   
     5     2    18 ar  
     6     3     4 ar  
     7     3     8 ar  
     8     3    22 1   
     9     4     5 ar  
    10     4    32 1   
    11     5     6 ar  
    12     5    33 1   
    13     6     7 ar  
    14     6    29 1   
    15     7     8 ar  
    16     7    34 1   
    17     8    35 1   
    18     9    23 2   
    19     9    24 1   
    20    10    11 1   
    21    10    12 1   
    22    10    36 1   
    23    10    56 1   
    24    11    21 1   
    25    11    37 1   
    26    11    38 1   
    27    12    25 1   
    28    12    39 1   
    29    12    40 1   
    30    13    14 ar  
    31    13    31 ar  
    32    13    41 1   
    33    14    15 ar  
    34    14    42 1   
    35    15    16 ar  
    36    15    43 1   
    37    16    30 ar  
    38    16    44 1   
    39    17    20 ar  
    40    18    19 ar  
    41    18    45 1   
    42    19    20 ar  
    43    19    46 1   
    44    20    21 1   
    45    21    25 1   
    46    24    47 1   
    47    24    48 1   
    48    25    49 1   
    49    25    50 1   
    50    26    57 2   
    51    27    28 2   
    52    27    52 1   
    53    27    57 1   
    54    28    53 1   
    55    28    54 1   
    56    29    30 1   
    57    30    31 ar  
    58    31    55 1   
    59    51    56 1   
    60    56    57 1   
@<TRIPOS>SUBSTRUCTURE
     1 GJA         1 TEMP              0 ****  ****    0 ROOT
