@<TRIPOS>MOLECULE
GJB
   29    30     1     0     0
SMALL
bcc


@<TRIPOS>ATOM
      1 C            1.7880    -1.2980    -0.1150 c          1 GJB       0.724500
      2 O            1.1540    -2.3240    -0.0480 o          1 GJB      -0.576500
      3 CA           3.2860    -1.2990    -0.0210 c6         1 GJB      -0.264400
      4 CB           3.9550     0.0130     0.2350 c          1 GJB       0.730500
      5 OAC          1.2400     2.1840    -0.4020 o          1 GJB      -0.604500
      6 CAE         -4.5650    -1.1690    -0.0610 ca         1 GJB      -0.128000
      7 CAF         -3.2120    -1.1390     0.2480 ca         1 GJB      -0.121500
      8 CAG         -5.2750     0.0170    -0.1960 ca         1 GJB      -0.126000
      9 CAH         -2.5480     0.0730     0.4260 ca         1 GJB      -0.086300
     10 CA0          1.8190     1.1350    -0.2480 c          1 GJB       0.838500
     11 CAJ         -0.2730    -0.0640    -0.5720 c3         1 GJB       0.101000
     12 NAL          1.1720    -0.0850    -0.3400 n          1 GJB      -0.516400
     13 OAN          5.1170     0.1140     0.5510 o          1 GJB      -0.576500
     14 NAB          3.1630     1.1110     0.0500 ns         1 GJB      -0.612500
     15 CAQ         -1.0740     0.0970     0.7190 c3         1 GJB      -0.048100
     16 CAP         -4.6230     1.2310    -0.0220 ca         1 GJB      -0.128000
     17 CAO         -3.2690     1.2560     0.2860 ca         1 GJB      -0.121500
     18 HA1C         3.5970    -2.0210     0.7340 hc         1 GJB       0.116700
     19 HA2C         3.6640    -1.6770    -0.9790 hc         1 GJB       0.116700
     20 HAB          3.5900     2.0210     0.1720 hn         1 GJB       0.350500
     21 HAF         -2.6660    -2.0690     0.3580 ha         1 GJB       0.134000
     22 HAG         -6.3320    -0.0040    -0.4310 ha         1 GJB       0.131000
     23 HAP         -5.1690     2.1600    -0.1240 ha         1 GJB       0.131000
     24 HAQ1        -0.8030     1.0380     1.2020 hc         1 GJB       0.059200
     25 HAQ2        -0.8160    -0.7080     1.4110 hc         1 GJB       0.059200
     26 HAO         -2.7680     2.2070     0.4250 ha         1 GJB       0.134000
     27 HAJ1        -0.4950     0.7450    -1.2640 h1         1 GJB       0.075700
     28 HAJ2        -0.5390    -0.9940    -1.0690 h1         1 GJB       0.075700
     29 HAE         -5.0660    -2.1190    -0.1940 ha         1 GJB       0.131000
@<TRIPOS>BOND
     1     1     2 2   
     2     1     3 1   
     3     1    12 1   
     4     3     4 1   
     5     3    18 1   
     6     3    19 1   
     7     4    13 2   
     8     4    14 1   
     9     5    10 2   
    10     6     7 ar  
    11     6     8 ar  
    12     6    29 1   
    13     7     9 ar  
    14     7    21 1   
    15     8    16 ar  
    16     8    22 1   
    17     9    15 1   
    18     9    17 ar  
    19    10    12 1   
    20    10    14 1   
    21    11    12 1   
    22    11    15 1   
    23    11    27 1   
    24    11    28 1   
    25    14    20 1   
    26    15    24 1   
    27    15    25 1   
    28    16    17 ar  
    29    16    23 1   
    30    17    26 1   
@<TRIPOS>SUBSTRUCTURE
     1 GJB         1 TEMP              0 ****  ****    0 ROOT
