@<TRIPOS>MOLECULE
GJB
   29    30     1     0     0
SMALL
No Charge or Current Charge


@<TRIPOS>ATOM
      1 C            1.8770    -1.3040    -0.1360 c          1 GJB       0.582000
      2 O            1.2930    -2.3080     0.2450 o          1 GJB      -0.501000
      3 CA           3.3730    -1.2610    -0.2850 c6         1 GJB      -0.264400
      4 CB           3.8680    -0.0590     0.4610 c          1 GJB       0.588000
      5 OAC          1.3830     2.2200    -0.5510 o          1 GJB      -0.529000
      6 CAE         -4.6550    -1.1760     0.1430 ca         1 GJB      -0.110000
      7 CAF         -3.2740    -1.1620     0.4100 ca         1 GJB      -0.103500
      8 CAG         -5.3290     0.0240    -0.1390 ca         1 GJB      -0.108000
      9 CAH         -2.5610     0.0530     0.3970 ca         1 GJB      -0.086300
     10 CA0          1.9060     1.1470    -0.3080 c          1 GJB       0.629000
     11 CAJ         -0.2370    -0.0860    -0.6130 c3         1 GJB       0.101000
     12 NAL          1.2280    -0.0830    -0.3720 n          1 GJB      -0.382400
     13 OAN          4.7250    -0.0970     1.3260 o          1 GJB      -0.501000
     14 NAB          3.1940     1.0760     0.1370 ns         1 GJB      -0.478500
     15 CAQ         -1.0650     0.0670     0.6780 c3         1 GJB      -0.048100
     16 CAP         -4.6220     1.2390    -0.1550 ca         1 GJB      -0.110000
     17 CAO         -3.2420     1.2530     0.1120 ca         1 GJB      -0.103500
     18 HA1C         3.8680    -2.1940     0.0070 hc         1 GJB       0.116700
     19 HA2C         3.5190    -0.9970    -1.3400 hc         1 GJB       0.116700
     20 HAB          3.6070     1.9490     0.4290 hn         1 GJB       0.350500
     21 HAF         -2.7590    -2.0960     0.6250 ha         1 GJB       0.116000
     22 HAG         -6.3970     0.0130    -0.3460 ha         1 GJB       0.113000
     23 HAP         -5.1430     2.1680    -0.3740 ha         1 GJB       0.113000
     24 HAQ1        -0.7840     1.0030     1.1760 hc         1 GJB       0.059200
     25 HAQ2        -0.8040    -0.7400     1.3730 hc         1 GJB       0.059200
     26 HAO         -2.7010     2.1970     0.0950 ha         1 GJB       0.116000
     27 HAJ1        -0.4980     0.7240    -1.3070 h1         1 GJB       0.075700
     28 HAJ2        -0.5200    -1.0250    -1.1090 h1         1 GJB       0.075700
     29 HAE         -5.2010    -2.1160     0.1540 ha         1 GJB       0.113000
@<TRIPOS>BOND
     1     1     2 2   
     2     1     3 1   
     3     1    12 1   
     4     3     4 1   
     5     3    18 1   
     6     3    19 1   
     7     4    13 2   
     8     4    14 1   
     9     5    10 2   
    10     6     7 ar  
    11     6     8 ar  
    12     6    29 1   
    13     7     9 ar  
    14     7    21 1   
    15     8    16 ar  
    16     8    22 1   
    17     9    15 1   
    18     9    17 ar  
    19    10    12 1   
    20    10    14 1   
    21    11    12 1   
    22    11    15 1   
    23    11    27 1   
    24    11    28 1   
    25    14    20 1   
    26    15    24 1   
    27    15    25 1   
    28    16    17 ar  
    29    16    23 1   
    30    17    26 1   
@<TRIPOS>SUBSTRUCTURE
     1 GJB         1 TEMP              0 ****  ****    0 ROOT
