@<TRIPOS>MOLECULE
GJC
   60    63     1     0     0
SMALL
abcg2


@<TRIPOS>ATOM
      1 O10          7.6920     9.2950   -11.8620 o          1 GJC      -0.566100
      2 C18         12.0270     2.1970    -5.6240 c6         1 GJC       0.217300
      3 C19         13.4420     2.1320    -5.0820 c6         1 GJC       0.152800
      4 C21         15.7620     1.8990    -5.6660 c3         1 GJC       0.148500
      5 C22         15.9710     0.5430    -5.0830 cc         1 GJC       0.197300
      6 C23         15.5700    -0.6750    -5.5690 cd         1 GJC      -0.174000
      7 C01         11.4030     5.8920   -10.8260 c3         1 GJC      -0.083100
      8 C03          9.4820     6.9710    -9.5950 cc         1 GJC      -0.040300
      9 C04          8.7780     6.2090    -8.6870 cd         1 GJC      -0.229500
     10 C06          7.2560     7.4500    -9.7730 cd         1 GJC      -0.072300
     11 C07          5.8860     7.9410   -10.0800 c3         1 GJC      -0.031800
     12 C08          8.5110     7.7660   -10.2990 cc         1 GJC      -0.262600
     13 C09          8.6670     8.7420   -11.3760 c          1 GJC       0.614700
     14 C11         10.0390     9.0850   -11.8990 c3         1 GJC      -0.190100
     15 C12          9.2050     5.2390    -7.6910 cd         1 GJC       0.430500
     16 C13          8.4360     4.7690    -6.6700 cc         1 GJC      -0.315000
     17 C15         10.7070     3.8990    -6.7750 cc         1 GJC       0.726300
     18 C26         17.1350    -3.5720    -5.4820 c          1 GJC       0.591100
     19 C31         14.2900     3.2440    -6.9960 c6         1 GJC       0.152800
     20 C32         12.9050     3.3370    -7.6010 c6         1 GJC       0.217300
     21 N05          7.4480     6.5280    -8.8210 na         1 GJC      -0.095000
     22 N16         10.4760     4.7300    -7.7460 nd         1 GJC      -0.734000
     23 N17         11.8960     3.2990    -6.5560 nh         1 GJC      -0.762300
     24 N20         14.4090     2.0660    -6.1590 n3         1 GJC      -0.722600
     25 N24         16.0240    -1.5550    -4.6620 na         1 GJC       0.131800
     26 N28         17.1050    -4.9070    -5.5730 nt         1 GJC      -0.611000
     27 N29         16.6750    -0.9410    -3.6890 nd         1 GJC      -0.194800
     28 N30         16.6390     0.3240    -3.9310 nc         1 GJC      -0.354000
     29 O27         18.0020    -2.8660    -5.9600 o          1 GJC      -0.565100
     30 S14          9.3320     3.6310    -5.7290 ss         1 GJC      -0.104400
     31 H181        11.3520     2.3380    -4.7780 h1         1 GJC       0.057450
     32 H182        11.7640     1.2490    -6.1080 h1         1 GJC       0.057450
     33 H191        13.5240     1.2410    -4.4560 h1         1 GJC       0.047700
     34 H192        13.6210     3.0050    -4.4310 h1         1 GJC       0.047700
     35 H212        16.4450     2.0390    -6.5090 h1         1 GJC       0.055200
     36 H211        16.0380     2.6570    -4.9150 h1         1 GJC       0.055200
     37 H231        15.0120    -0.9670    -6.4430 h4         1 GJC       0.173000
     38 H252        15.9580    -3.3640    -3.6800 h1         1 GJC       0.085200
     39 H251        15.0140    -3.2870    -5.1600 h1         1 GJC       0.085200
     40 H013        12.4860     5.9050   -10.9560 hc         1 GJC       0.032700
     41 H012        11.1150     4.8900   -10.5080 hc         1 GJC       0.032700
     42 H011        10.9490     6.0750   -11.8010 hc         1 GJC       0.032700
     43 H022        11.4420     6.6770    -8.8390 hc         1 GJC       0.050700
     44 H021        11.3490     7.9060   -10.0630 hc         1 GJC       0.050700
     45 H072         5.6090     7.7400   -11.1140 hc         1 GJC       0.056033
     46 H073         5.1550     7.4560    -9.4340 hc         1 GJC       0.056033
     47 H071         5.8050     9.0170    -9.9310 hc         1 GJC       0.056033
     48 H112         9.9490     9.7760   -12.7350 hc         1 GJC       0.057700
     49 H111        10.6420     9.5590   -11.1240 hc         1 GJC       0.057700
     50 H113        10.5790     8.2000   -12.2350 hc         1 GJC       0.057700
     51 H131         7.4230     5.0210    -6.3980 h4         1 GJC       0.152000
     52 H311        15.0150     3.1840    -7.8100 h1         1 GJC       0.047700
     53 H312        14.5050     4.1690    -6.4350 h1         1 GJC       0.047700
     54 H321        12.8120     4.2680    -8.1550 h1         1 GJC       0.057450
     55 H322        12.7480     2.5100    -8.3050 h1         1 GJC       0.057450
     56 H051         6.6960     6.1060    -8.2970 hn         1 GJC       0.346000
     57 H282        17.8360    -5.3980    -6.0600 hn         1 GJC       0.319500
     58 H281        16.3660    -5.4590    -5.1690 hn         1 GJC       0.319500
     59 C25         15.9570    -2.9870    -4.7030 c3         1 GJC      -0.016400
     60 C02         10.9690     6.9240    -9.7870 c3         1 GJC      -0.009100
@<TRIPOS>BOND
     1     1    13 2   
     2     2     3 1   
     3     2    23 1   
     4     2    31 1   
     5     2    32 1   
     6     3    24 1   
     7     3    33 1   
     8     3    34 1   
     9     4     5 1   
    10     4    24 1   
    11     4    35 1   
    12     4    36 1   
    13     5     6 2   
    14     5    28 1   
    15     6    25 1   
    16     6    37 1   
    17     7    40 1   
    18     7    41 1   
    19     7    42 1   
    20     7    60 1   
    21     8     9 2   
    22     8    12 1   
    23     8    60 1   
    24     9    15 1   
    25     9    21 1   
    26    10    11 1   
    27    10    12 2   
    28    10    21 1   
    29    11    45 1   
    30    11    46 1   
    31    11    47 1   
    32    12    13 1   
    33    13    14 1   
    34    14    48 1   
    35    14    49 1   
    36    14    50 1   
    37    15    16 2   
    38    15    22 1   
    39    16    30 1   
    40    16    51 1   
    41    17    22 2   
    42    17    23 1   
    43    17    30 1   
    44    18    26 1   
    45    18    29 2   
    46    18    59 1   
    47    19    20 1   
    48    19    24 1   
    49    19    52 1   
    50    19    53 1   
    51    20    23 1   
    52    20    54 1   
    53    20    55 1   
    54    21    56 1   
    55    25    27 1   
    56    25    59 1   
    57    26    57 1   
    58    26    58 1   
    59    27    28 2   
    60    38    59 1   
    61    39    59 1   
    62    43    60 1   
    63    44    60 1   
@<TRIPOS>SUBSTRUCTURE
     1 GJC         1 TEMP              0 ****  ****    0 ROOT
