@<TRIPOS>MOLECULE
GJC
   60    63     1     0     0
SMALL
No Charge or Current Charge


@<TRIPOS>ATOM
      1 O10          7.5610     9.6010   -11.7740 o          1 GJC      -0.566100
      2 C18         12.0020     2.0460    -5.8340 c6         1 GJC       0.217300
      3 C19         13.4160     1.8950    -5.1890 c6         1 GJC       0.152800
      4 C21         15.8740     1.7900    -5.5850 c3         1 GJC       0.148500
      5 C22         16.0920     0.4240    -4.9680 cc         1 GJC       0.197300
      6 C23         15.8060    -0.7910    -5.5100 cd         1 GJC      -0.174000
      7 C01         11.2110     5.9330   -10.9940 c3         1 GJC      -0.083100
      8 C03          9.3650     7.0790    -9.6440 cc         1 GJC      -0.040300
      9 C04          8.6900     6.3220    -8.7000 cd         1 GJC      -0.229500
     10 C06          7.1500     7.6840    -9.6680 cd         1 GJC      -0.072300
     11 C07          5.7790     8.2750    -9.9100 c3         1 GJC      -0.031800
     12 C08          8.3760     7.9340   -10.2650 cc         1 GJC      -0.262600
     13 C09          8.5220     8.9520   -11.3760 c          1 GJC       0.614700
     14 C11          9.8560     9.2310   -12.0690 c3         1 GJC      -0.190100
     15 C12          9.2210     5.2870    -7.8320 cd         1 GJC       0.430500
     16 C13          8.3630     4.6570    -6.9560 cc         1 GJC      -0.315000
     17 C15         10.6610     3.8870    -6.9040 cc         1 GJC       0.726300
     18 C26         17.2950    -3.8230    -5.2510 c          1 GJC       0.591100
     19 C31         14.4160     3.2780    -6.9340 c6         1 GJC       0.152800
     20 C32         13.0300     3.4640    -7.6260 c6         1 GJC       0.217300
     21 N05          7.3500     6.7000    -8.7100 na         1 GJC      -0.095000
     22 N16         10.5300     4.8450    -7.7990 nd         1 GJC      -0.734000
     23 N17         11.8780     3.2740    -6.6830 nh         1 GJC      -0.762300
     24 N20         14.5260     1.9890    -6.1880 n3         1 GJC      -0.722600
     25 N24         16.1990    -1.6780    -4.5360 na         1 GJC       0.131800
     26 N28         17.3230    -5.1740    -5.1760 nt         1 GJC      -0.611000
     27 N29         16.6950    -1.0060    -3.4480 nd         1 GJC      -0.194800
     28 N30         16.6300     0.2730    -3.7190 nc         1 GJC      -0.354000
     29 O27         18.1830    -3.2290    -5.8420 o          1 GJC      -0.565100
     30 S14          9.2080     3.4530    -6.0280 ss         1 GJC      -0.104400
     31 H181        11.2670     2.0490    -5.0170 h1         1 GJC       0.057450
     32 H182        11.7980     1.1560    -6.4460 h1         1 GJC       0.057450
     33 H191        13.4490     0.9300    -4.6630 h1         1 GJC       0.047700
     34 H192        13.5320     2.6770    -4.4250 h1         1 GJC       0.047700
     35 H212        16.6450     1.9240    -6.3560 h1         1 GJC       0.055200
     36 H211        16.0580     2.5560    -4.8190 h1         1 GJC       0.055200
     37 H231        15.3750    -1.0700    -6.4620 h4         1 GJC       0.173000
     38 H252        16.0410    -3.5220    -3.5390 h1         1 GJC       0.085200
     39 H251        15.1940    -3.4360    -5.0970 h1         1 GJC       0.085200
     40 H013        12.2830     5.9600   -11.2200 hc         1 GJC       0.032700
     41 H012        10.9680     4.9370   -10.6090 hc         1 GJC       0.032700
     42 H011        10.6570     6.0750   -11.9290 hc         1 GJC       0.032700
     43 H022        11.4230     6.8390    -9.0460 hc         1 GJC       0.050700
     44 H021        11.2400     7.9850   -10.2830 hc         1 GJC       0.050700
     45 H072         5.4480     8.0980   -10.9400 hc         1 GJC       0.056033
     46 H073         5.0270     7.8340    -9.2440 hc         1 GJC       0.056033
     47 H071         5.7780     9.3570    -9.7320 hc         1 GJC       0.056033
     48 H112         9.7370     9.8840   -12.9420 hc         1 GJC       0.057700
     49 H111        10.5320     9.7030   -11.3500 hc         1 GJC       0.057700
     50 H113        10.3470     8.2960   -12.3460 hc         1 GJC       0.057700
     51 H131         7.3070     4.8120    -6.7900 h4         1 GJC       0.152000
     52 H311        15.1980     3.3410    -7.7040 h1         1 GJC       0.047700
     53 H312        14.5750     4.1240    -6.2480 h1         1 GJC       0.047700
     54 H321        13.0160     4.4660    -8.0790 h1         1 GJC       0.057450
     55 H322        12.9500     2.7410    -8.4510 h1         1 GJC       0.057450
     56 H051         6.6240     6.3110    -8.1180 hn         1 GJC       0.346000
     57 H282        18.0830    -5.6760    -5.6110 hn         1 GJC       0.319500
     58 H281        16.5920    -5.6740    -4.6900 hn         1 GJC       0.319500
     59 C25         16.1060    -3.1440    -4.5660 c3         1 GJC      -0.016400
     60 C02         10.8500     7.0210    -9.9600 c3         1 GJC      -0.009100
@<TRIPOS>BOND
     1     1    13 2   
     2     2     3 1   
     3     2    23 1   
     4     2    31 1   
     5     2    32 1   
     6     3    24 1   
     7     3    33 1   
     8     3    34 1   
     9     4     5 1   
    10     4    24 1   
    11     4    35 1   
    12     4    36 1   
    13     5     6 2   
    14     5    28 1   
    15     6    25 1   
    16     6    37 1   
    17     7    40 1   
    18     7    41 1   
    19     7    42 1   
    20     7    60 1   
    21     8     9 2   
    22     8    12 1   
    23     8    60 1   
    24     9    15 1   
    25     9    21 1   
    26    10    11 1   
    27    10    12 2   
    28    10    21 1   
    29    11    45 1   
    30    11    46 1   
    31    11    47 1   
    32    12    13 1   
    33    13    14 1   
    34    14    48 1   
    35    14    49 1   
    36    14    50 1   
    37    15    16 2   
    38    15    22 1   
    39    16    30 1   
    40    16    51 1   
    41    17    22 2   
    42    17    23 1   
    43    17    30 1   
    44    18    26 1   
    45    18    29 2   
    46    18    59 1   
    47    19    20 1   
    48    19    24 1   
    49    19    52 1   
    50    19    53 1   
    51    20    23 1   
    52    20    54 1   
    53    20    55 1   
    54    21    56 1   
    55    25    27 1   
    56    25    59 1   
    57    26    57 1   
    58    26    58 1   
    59    27    28 2   
    60    38    59 1   
    61    39    59 1   
    62    43    60 1   
    63    44    60 1   
@<TRIPOS>SUBSTRUCTURE
     1 GJC         1 TEMP              0 ****  ****    0 ROOT
