@<TRIPOS>MOLECULE
GJD
   38    39     1     0     0
SMALL
No Charge or Current Charge


@<TRIPOS>ATOM
      1 C2          -0.8410     0.3900     0.2890 ca         1 GJD       0.447900
      2 C4          -2.8340     0.4450    -0.8030 ca         1 GJD       0.469900
      3 C5          -3.3410    -0.5760     0.0060 ca         1 GJD      -0.413600
      4 C6          -2.4630    -1.0670     0.9900 ca         1 GJD       0.205900
      5 CAT          5.9720    -1.5570    -1.4670 c3         1 GJD      -0.077100
      6 CAS          4.4540    -1.6910    -1.2140 c3         1 GJD      -0.156400
      7 OAR          4.2570    -1.3380     1.1700 o          1 GJD      -0.603100
      8 NAN          3.3180     0.2340    -0.2030 ns         1 GJD      -0.512900
      9 CAL          2.8110     1.0080     0.9510 c5         1 GJD       0.103700
     10 CAM          1.4670     0.3500     1.4050 c5         1 GJD       0.220800
     11 CAK          2.3320     2.3630     0.3630 c5         1 GJD      -0.117400
     12 CAJ          1.0290     1.9930    -0.4020 c5         1 GJD       0.235800
     13 NAI          0.4690     0.8960     0.4330 nh         1 GJD      -0.776300
     14 N3          -1.5990     0.9300    -0.6790 nb         1 GJD      -0.362000
     15 NAH         -3.5560     1.0320    -1.7740 nv         1 GJD      -1.062900
     16 N1          -1.2170    -0.5870     1.1340 nb         1 GJD      -0.284000
     17 CAG         -4.7180    -1.1390    -0.1560 c          1 GJD       0.653700
     18 OAO         -5.4670    -0.8380    -1.0700 o          1 GJD      -0.656100
     19 NAP         -5.1330    -2.0420     0.7500 nt         1 GJD      -0.600000
     20 H1          -2.7440    -1.8640     1.6770 h4         1 GJD       0.010100
     21 H2           6.5440    -1.9590    -0.6210 hc         1 GJD       0.042700
     22 H3           6.2610    -2.1100    -2.3690 hc         1 GJD       0.042700
     23 H4           6.2510    -0.5050    -1.6040 hc         1 GJD       0.042700
     24 H5           3.9260    -1.3030    -2.0940 hc         1 GJD       0.054700
     25 H6           4.2210    -2.7540    -1.0810 hc         1 GJD       0.054700
     26 H7           3.1500     0.4820    -1.1700 hn         1 GJD       0.314500
     27 H8           3.5440     1.1160     1.7630 h1         1 GJD       0.083700
     28 H9           1.5250    -0.7480     1.3860 h1         1 GJD       0.075200
     29 H10          1.2170     0.6550     2.4310 h1         1 GJD       0.075200
     30 H11          2.1080     3.0690     1.1710 hc         1 GJD       0.063200
     31 H12          3.0760     2.8450    -0.2810 hc         1 GJD       0.063200
     32 H13          0.3540     2.8570    -0.4730 h1         1 GJD       0.056700
     33 H14          1.2450     1.6410    -1.4210 h1         1 GJD       0.056700
     34 H15         -4.4310     0.5590    -2.0080 hn         1 GJD       0.514500
     35 H16         -3.0590     1.4860    -2.5340 hn         1 GJD       0.514500
     36 H17         -4.5310    -2.3070     1.5140 hn         1 GJD       0.311000
     37 H18         -6.0540    -2.4410     0.6580 hn         1 GJD       0.311000
     38 CAQ          4.0210    -0.9280     0.0420 c          1 GJD       0.597100
@<TRIPOS>BOND
     1     1    13 1   
     2     1    14 ar  
     3     1    16 ar  
     4     2     3 ar  
     5     2    14 ar  
     6     2    15 1   
     7     3     4 ar  
     8     3    17 1   
     9     4    16 ar  
    10     4    20 1   
    11     5     6 1   
    12     5    21 1   
    13     5    22 1   
    14     5    23 1   
    15     6    24 1   
    16     6    25 1   
    17     6    38 1   
    18     7    38 2   
    19     8     9 1   
    20     8    26 1   
    21     8    38 1   
    22     9    10 1   
    23     9    11 1   
    24     9    27 1   
    25    10    13 1   
    26    10    28 1   
    27    10    29 1   
    28    11    12 1   
    29    11    30 1   
    30    11    31 1   
    31    12    13 1   
    32    12    32 1   
    33    12    33 1   
    34    15    34 1   
    35    15    35 1   
    36    17    18 2   
    37    17    19 1   
    38    19    36 1   
    39    19    37 1   
@<TRIPOS>SUBSTRUCTURE
     1 GJD         1 TEMP              0 ****  ****    0 ROOT
