@<TRIPOS>MOLECULE
GJD
   38    39     1     0     0
SMALL
abcg2


@<TRIPOS>ATOM
      1 C2          -0.7730     0.4050     0.2630 ca         1 GJD       0.447900
      2 C4          -2.7910     0.3620    -0.8100 ca         1 GJD       0.469900
      3 C5          -3.2070    -0.7250     0.0160 ca         1 GJD      -0.413600
      4 C6          -2.2430    -1.1700     0.9120 ca         1 GJD       0.205900
      5 CAT          5.8020    -2.1710    -1.1600 c3         1 GJD      -0.077100
      6 CAS          4.5590    -1.3290    -1.3940 c3         1 GJD      -0.156400
      7 OAR          4.1730    -1.2120     0.9770 o          1 GJD      -0.603100
      8 NAN          3.3300     0.4380    -0.3000 ns         1 GJD      -0.512900
      9 CAL          2.7230     1.1720     0.7920 c5         1 GJD       0.103700
     10 CAM          1.4540     0.4950     1.3110 c5         1 GJD       0.220800
     11 CAK          2.1860     2.5040     0.2790 c5         1 GJD      -0.117400
     12 CAJ          0.8530     2.1360    -0.3670 c5         1 GJD       0.235800
     13 NAI          0.4260     0.9810     0.4050 nh         1 GJD      -0.776300
     14 N3          -1.5870     0.9110    -0.6600 nb         1 GJD      -0.362000
     15 NAH         -3.5780     0.8940    -1.7460 nv         1 GJD      -1.062900
     16 N1          -1.0450    -0.6430     1.0630 nb         1 GJD      -0.284000
     17 CAG         -4.5340    -1.3520    -0.1090 c          1 GJD       0.653700
     18 OAO         -5.2560    -1.1630    -1.0890 o          1 GJD      -0.656100
     19 NAP         -4.9250    -2.1630     0.8920 nt         1 GJD      -0.600000
     20 H1          -2.4440    -2.0290     1.5460 h4         1 GJD       0.010100
     21 H2           5.6080    -2.9790    -0.4570 hc         1 GJD       0.042700
     22 H3           6.1350    -2.6170    -2.0960 hc         1 GJD       0.042700
     23 H4           6.6230    -1.5720    -0.7670 hc         1 GJD       0.042700
     24 H5           4.7560    -0.5540    -2.1380 hc         1 GJD       0.054700
     25 H6           3.7630    -1.9500    -1.8170 hc         1 GJD       0.054700
     26 H7           3.2820     0.8300    -1.2280 hn         1 GJD       0.314500
     27 H8           3.4510     1.3000     1.5940 h1         1 GJD       0.083700
     28 H9           1.5190    -0.5910     1.2990 h1         1 GJD       0.075200
     29 H10          1.2560     0.8050     2.3420 h1         1 GJD       0.075200
     30 H11          2.0260     3.1720     1.1260 hc         1 GJD       0.063200
     31 H12          2.8650     3.0050    -0.4110 hc         1 GJD       0.063200
     32 H13          0.1250     2.9450    -0.3110 h1         1 GJD       0.056700
     33 H14          0.9690     1.8780    -1.4240 h1         1 GJD       0.056700
     34 H15         -4.4430     0.4410    -1.9870 hn         1 GJD       0.514500
     35 H16         -3.2070     1.6170    -2.3380 hn         1 GJD       0.514500
     36 H17         -4.4670    -2.1870     1.7860 hn         1 GJD       0.311000
     37 H18         -5.8400    -2.5820     0.8460 hn         1 GJD       0.311000
     38 CAQ          4.0180    -0.7040    -0.1250 c          1 GJD       0.597100
@<TRIPOS>BOND
     1     1    13 1   
     2     1    14 ar  
     3     1    16 ar  
     4     2     3 ar  
     5     2    14 ar  
     6     2    15 1   
     7     3     4 ar  
     8     3    17 1   
     9     4    16 ar  
    10     4    20 1   
    11     5     6 1   
    12     5    21 1   
    13     5    22 1   
    14     5    23 1   
    15     6    24 1   
    16     6    25 1   
    17     6    38 1   
    18     7    38 2   
    19     8     9 1   
    20     8    26 1   
    21     8    38 1   
    22     9    10 1   
    23     9    11 1   
    24     9    27 1   
    25    10    13 1   
    26    10    28 1   
    27    10    29 1   
    28    11    12 1   
    29    11    30 1   
    30    11    31 1   
    31    12    13 1   
    32    12    32 1   
    33    12    33 1   
    34    15    34 1   
    35    15    35 1   
    36    17    18 2   
    37    17    19 1   
    38    19    36 1   
    39    19    37 1   
@<TRIPOS>SUBSTRUCTURE
     1 GJD         1 TEMP              0 ****  ****    0 ROOT
