@<TRIPOS>MOLECULE
GJE
   27    27     1     0     0
SMALL
bcc


@<TRIPOS>ATOM
      1 C4          -0.0850     1.1870     0.2250 c2         1 GJE       0.687300
      2 C5           1.3470     0.7880     0.1030 cc         1 GJE      -0.151000
      3 C6           2.2970     1.7780    -0.1480 cc         1 GJE      -0.064500
      4 C7           3.6380     1.4620    -0.2480 cd         1 GJE      -0.250100
      5 C8           4.0600     0.1450    -0.0740 cd         1 GJE       0.495900
      6 C9           3.1220    -0.8500     0.1940 cd         1 GJE      -0.250100
      7 C10          1.7800    -0.5240     0.2770 cc         1 GJE      -0.064500
      8 N1          -0.9920     0.2350    -0.0550 ns         1 GJE      -0.575900
      9 N2           5.4400    -0.0760    -0.1780 ne         1 GJE      -0.406400
     10 C3          -2.4130     0.4910     0.0300 c3         1 GJE       0.108000
     11 N3           5.8590    -1.2140    -0.0120 n1         1 GJE       0.132700
     12 F1          -5.0220    -0.2040     1.1770 f          1 GJE      -0.235967
     13 C1          -4.6530    -0.6670    -0.0280 c3         1 GJE       0.670900
     14 F2          -5.2880    -1.8330    -0.2040 f          1 GJE      -0.235967
     15 F3          -5.1530     0.1880    -0.9340 f          1 GJE      -0.235967
     16 C2          -3.1630    -0.8240    -0.1490 c3         1 GJE      -0.174400
     17 O1          -0.4060     2.3170     0.5690 o          1 GJE      -0.618300
     18 N4           6.3510    -2.2110     0.1210 n1         1 GJE      -0.029000
     19 H1           1.9850     2.8050    -0.2760 ha         1 GJE       0.145000
     20 H2           4.3690     2.2320    -0.4560 ha         1 GJE       0.144500
     21 H3           3.4210    -1.8790     0.3500 ha         1 GJE       0.144500
     22 H4           1.0780    -1.3150     0.5090 ha         1 GJE       0.145000
     23 H5          -0.6910    -0.6040    -0.5250 hn         1 GJE       0.315500
     24 H7          -2.6360     0.9280     1.0040 h1         1 GJE       0.069200
     25 H8          -2.7180     1.2140    -0.7300 h1         1 GJE       0.069200
     26 H10         -2.9470    -1.2500    -1.1310 hc         1 GJE       0.081700
     27 H11         -2.8350    -1.5480     0.6000 hc         1 GJE       0.081700
@<TRIPOS>BOND
     1     1     2 2   
     2     1     8 1   
     3     1    17 1   
     4     2     3 1   
     5     2     7 1   
     6     3     4 2   
     7     3    19 1   
     8     4     5 1   
     9     4    20 1   
    10     5     6 1   
    11     5     9 2   
    12     6     7 2   
    13     6    21 1   
    14     7    22 1   
    15     8    10 1   
    16     8    23 1   
    17     9    11 1   
    18    10    16 1   
    19    10    24 1   
    20    10    25 1   
    21    11    18 3   
    22    12    13 1   
    23    13    14 1   
    24    13    15 1   
    25    13    16 1   
    26    16    26 1   
    27    16    27 1   
@<TRIPOS>SUBSTRUCTURE
     1 GJE         1 TEMP              0 ****  ****    0 ROOT
