@<TRIPOS>MOLECULE
GJE
   27    27     1     0     0
SMALL
No Charge or Current Charge


@<TRIPOS>ATOM
      1 C4           0.0040     1.1830     0.0310 c2         1 GJE       0.620300
      2 C5           1.3360     0.8270    -0.0250 cc         1 GJE      -0.151000
      3 C6           2.3570     1.8490     0.0080 cc         1 GJE      -0.114500
      4 C7           3.7000     1.5310    -0.0440 cd         1 GJE      -0.300100
      5 C8           4.1130     0.1630    -0.1290 cd         1 GJE       0.495900
      6 C9           3.1150    -0.8770    -0.1730 cd         1 GJE      -0.300100
      7 C10          1.7730    -0.5520    -0.1200 cc         1 GJE      -0.114500
      8 N1          -0.9720     0.1810    -0.0030 ns         1 GJE      -0.508900
      9 N2           5.4010    -0.0880    -0.1820 ne         1 GJE      -0.406400
     10 C3          -2.4100     0.4490     0.0460 c3         1 GJE       0.108000
     11 N3           5.8580    -1.1990     0.1730 n1         1 GJE       0.132700
     12 F1          -5.1180    -0.0200     1.1770 f          1 GJE      -0.114667
     13 C1          -4.7500    -0.6430     0.0340 c3         1 GJE       0.307000
     14 F2          -5.3990    -1.8270    -0.0210 f          1 GJE      -0.114667
     15 F3          -5.1680     0.1090    -1.0090 f          1 GJE      -0.114667
     16 C2          -3.2230    -0.8590    -0.0130 c3         1 GJE      -0.174400
     17 O1          -0.3580     2.3570     0.1100 o          1 GJE      -0.618300
     18 N4           6.4000    -2.1460     0.4950 n1         1 GJE      -0.029000
     19 H1           2.0600     2.8960     0.0760 ha         1 GJE       0.195000
     20 H2           4.4510     2.3130    -0.0190 ha         1 GJE       0.194500
     21 H3           3.4120    -1.9170    -0.2530 ha         1 GJE       0.194500
     22 H4           1.0470    -1.3600    -0.1540 ha         1 GJE       0.195000
     23 H5          -0.6610    -0.7780    -0.0600 hn         1 GJE       0.315500
     24 H7          -2.6390     0.9890     0.9750 h1         1 GJE       0.069200
     25 H8          -2.6790     1.0940    -0.8020 h1         1 GJE       0.069200
     26 H10         -2.9730    -1.4000    -0.9340 hc         1 GJE       0.081700
     27 H11         -2.9330    -1.5030     0.8260 hc         1 GJE       0.081700
@<TRIPOS>BOND
     1     1     2 2   
     2     1     8 1   
     3     1    17 1   
     4     2     3 1   
     5     2     7 1   
     6     3     4 2   
     7     3    19 1   
     8     4     5 1   
     9     4    20 1   
    10     5     6 1   
    11     5     9 2   
    12     6     7 2   
    13     6    21 1   
    14     7    22 1   
    15     8    10 1   
    16     8    23 1   
    17     9    11 1   
    18    10    16 1   
    19    10    24 1   
    20    10    25 1   
    21    11    18 3   
    22    12    13 1   
    23    13    14 1   
    24    13    15 1   
    25    13    16 1   
    26    16    26 1   
    27    16    27 1   
@<TRIPOS>SUBSTRUCTURE
     1 GJE         1 TEMP              0 ****  ****    0 ROOT
