@<TRIPOS>MOLECULE
GJF
   68    74     1     0     0
SMALL
No Charge or Current Charge


@<TRIPOS>ATOM
      1 C1         166.5580   162.7270   157.9320 ca         1 GJF       0.113500
      2 C2         165.6690   162.5890   158.9690 ca         1 GJF      -0.075600
      3 C3         164.2970   162.4560   158.6590 ca         1 GJF       0.446900
      4 C4         167.6080   162.7060   159.8990 cc         1 GJF       0.422700
      5 N1         163.8690   162.4460   157.3870 nb         1 GJF      -0.290000
      6 N2         166.1580   162.7200   156.6460 nb         1 GJF      -0.240000
      7 C5         167.8910   167.7170   160.1680 c5         1 GJF       0.113300
      8 C6         166.5280   168.4340   159.9910 c5         1 GJF       0.338300
      9 C7         168.2390   169.7400   158.9920 c5         1 GJF       0.168300
     10 C8         168.8380   168.9570   160.2150 c5         1 GJF       0.115300
     11 O1         166.7930   169.5130   159.0600 os         1 GJF      -0.440000
     12 O2         168.7200   169.7170   161.4330 oh         1 GJF      -0.698000
     13 O3         167.8940   166.9460   161.3990 os         1 GJF      -0.509400
     14 C9         168.8150   169.3070   157.6030 c3         1 GJF       0.207600
     15 C10        164.1790   167.5350   160.1350 ca         1 GJF       0.144500
     16 C11        163.5910   166.4130   159.6100 ca         1 GJF      -0.090600
     17 C12        165.4970   166.5600   158.6310 cc         1 GJF       0.410700
     18 C13        162.3490   167.8700   161.4650 ca         1 GJF       0.183900
     19 C14        162.3240   166.0340   160.0980 ca         1 GJF       0.443900
     20 N3         165.4060   167.6170   159.5400 na         1 GJF      -0.292300
     21 N4         164.3950   165.7920   158.6530 nd         1 GJF      -0.534100
     22 N5         163.5760   168.2920   161.0730 nb         1 GJF      -0.216000
     23 N6         161.6930   166.7670   161.0290 nb         1 GJF      -0.300000
     24 N7         161.7010   164.8880   159.7170 nv         1 GJF      -1.057900
     25 O6         168.2030   168.0810   157.1540 os         1 GJF      -0.612400
     26 P1         169.2640   166.2480   161.8940 p5         1 GJF       1.096200
     27 P2         168.8550   167.2520   155.9350 p5         1 GJF       1.141200
     28 C15        170.6260   165.5350   159.7480 c3         1 GJF       0.218600
     29 O7         169.6270   165.1910   160.7310 os         1 GJF      -0.606400
     30 C16        170.4660   164.6640   158.4740 c5         1 GJF       0.159300
     31 O8         170.1120   163.2830   158.7810 os         1 GJF      -0.433000
     32 C17        169.3750   165.1240   157.4720 c5         1 GJF       0.198300
     33 O9         169.8770   166.2380   156.6810 os         1 GJF      -0.552400
     34 C18        169.2490   163.8140   156.6190 c5         1 GJF       0.094300
     35 O10        170.4190   163.5260   155.8070 oh         1 GJF      -0.702000
     36 C19        169.1040   162.8270   157.8380 c5         1 GJF       0.297300
     37 C20        164.8260   162.5850   156.4390 ca         1 GJF       0.186900
     38 N8         163.3340   162.2860   159.6080 nv         1 GJF      -1.056900
     39 N9         166.3040   162.5730   160.2130 nd         1 GJF      -0.538100
     40 N10        167.7960   162.8200   158.5140 na         1 GJF      -0.322300
     41 H1         168.4320   162.7180   160.6030 h5         1 GJF       0.083800
     42 H2         168.1170   167.0520   159.3290 h1         1 GJF       0.071700
     43 H3         166.2330   168.8630   160.9580 h2         1 GJF       0.129700
     44 H4         168.4340   170.8160   159.1030 h1         1 GJF       0.104700
     45 H5         169.8880   168.6880   160.0310 h1         1 GJF       0.053700
     46 H6         169.2670   169.2600   162.1160 ho         1 GJF       0.536000
     47 H7         169.4850   165.5500   164.2050 hs         1 GJF       0.299800
     48 H8         169.9060   169.2060   157.6800 h1         1 GJF       0.071200
     49 H9         168.6090   170.1110   156.8840 h1         1 GJF       0.071200
     50 H10        166.3790   166.3830   158.0320 h5         1 GJF       0.066800
     51 H11        161.8460   168.4720   162.2200 h5         1 GJF       0.047100
     52 H12        160.9260   164.5850   160.2980 hn         1 GJF       0.501000
     53 H13        162.3260   164.1350   159.4170 hn         1 GJF       0.501000
     54 H14        167.4450   166.6220   154.0910 hs         1 GJF       0.324800
     55 H15        171.6280   165.3570   160.1600 h1         1 GJF       0.063200
     56 H16        170.5730   166.5930   159.4610 h1         1 GJF       0.063200
     57 H17        171.4380   164.6560   157.9630 h1         1 GJF       0.099700
     58 H18        168.4370   165.3890   157.9770 h1         1 GJF       0.080700
     59 H19        168.3470   163.8090   155.9990 h1         1 GJF       0.106700
     60 H20        170.1900   162.7900   155.1910 ho         1 GJF       0.526000
     61 H21        169.2970   161.7880   157.5390 h2         1 GJF       0.108700
     62 H22        164.4910   162.5800   155.4030 h5         1 GJF       0.047100
     63 H23        162.5300   161.7280   159.3320 hn         1 GJF       0.497000
     64 H24        163.6830   162.0890   160.5440 hn         1 GJF       0.497000
     65 O4         170.3540   167.1720   162.3030 o          1 GJF      -0.515000
     66 S1         168.5770   164.9640   163.3940 sh         1 GJF      -0.400200
     67 O5         169.4490   168.0890   154.8610 o          1 GJF      -0.475000
     68 S2         167.2190   166.1040   155.3210 sh         1 GJF      -0.503200
@<TRIPOS>BOND
     1     1     2 ar  
     2     1     6 ar  
     3     1    40 1   
     4     2     3 ar  
     5     2    39 1   
     6     3     5 ar  
     7     3    38 1   
     8     4    39 2   
     9     4    40 1   
    10     4    41 1   
    11     5    37 ar  
    12     6    37 ar  
    13     7     8 1   
    14     7    10 1   
    15     7    13 1   
    16     7    42 1   
    17     8    11 1   
    18     8    20 1   
    19     8    43 1   
    20     9    10 1   
    21     9    11 1   
    22     9    14 1   
    23     9    44 1   
    24    10    12 1   
    25    10    45 1   
    26    12    46 1   
    27    13    26 1   
    28    14    25 1   
    29    14    48 1   
    30    14    49 1   
    31    15    16 ar  
    32    15    20 1   
    33    15    22 ar  
    34    16    19 ar  
    35    16    21 1   
    36    17    20 1   
    37    17    21 2   
    38    17    50 1   
    39    18    22 ar  
    40    18    23 ar  
    41    18    51 1   
    42    19    23 ar  
    43    19    24 1   
    44    24    52 1   
    45    24    53 1   
    46    25    27 1   
    47    26    29 1   
    48    26    65 2   
    49    26    66 1   
    50    27    33 1   
    51    27    67 2   
    52    27    68 1   
    53    28    29 1   
    54    28    30 1   
    55    28    55 1   
    56    28    56 1   
    57    30    31 1   
    58    30    32 1   
    59    30    57 1   
    60    31    36 1   
    61    32    33 1   
    62    32    34 1   
    63    32    58 1   
    64    34    35 1   
    65    34    36 1   
    66    34    59 1   
    67    35    60 1   
    68    36    40 1   
    69    36    61 1   
    70    37    62 1   
    71    38    63 1   
    72    38    64 1   
    73    47    66 1   
    74    54    68 1   
@<TRIPOS>SUBSTRUCTURE
     1 GJF         1 TEMP              0 ****  ****    0 ROOT
