@<TRIPOS>MOLECULE
GJF
   68    74     1     0     0
SMALL
bcc


@<TRIPOS>ATOM
      1 C1         166.5520   162.3700   157.8540 ca         1 GJF       0.441800
      2 C2         165.5240   162.5030   158.7740 ca         1 GJF      -0.206200
      3 C3         164.2450   162.1290   158.3290 ca         1 GJF       0.775200
      4 C4         167.2720   163.1680   159.7580 cc         1 GJF       0.422700
      5 N1         164.1240   161.6570   157.0850 nb         1 GJF      -0.816000
      6 N2         166.4500   161.9050   156.6100 nb         1 GJF      -0.766000
      7 C5         167.8730   167.8930   160.2440 c5         1 GJF       0.090100
      8 C6         166.5010   168.5390   160.1200 c5         1 GJF       0.285800
      9 C7         168.0220   169.8330   158.9210 c5         1 GJF       0.145100
     10 C8         168.8090   169.0760   159.9990 c5         1 GJF       0.092100
     11 O1         166.6500   169.4670   159.0820 os         1 GJF      -0.393600
     12 O2         168.9230   169.8940   161.1290 oh         1 GJF      -0.575800
     13 O3         168.0040   167.2560   161.5030 os         1 GJF      -0.486200
     14 C9         168.4800   169.5450   157.5100 c3         1 GJF       0.184400
     15 C10        164.2940   167.4270   160.5060 ca         1 GJF       0.472800
     16 C11        163.6080   166.4370   159.8230 ca         1 GJF      -0.221200
     17 C12        165.3930   166.7450   158.7370 cc         1 GJF       0.410700
     18 C13        162.7070   167.6230   162.0080 ca         1 GJF       0.709900
     19 C14        162.3660   166.0550   160.3600 ca         1 GJF       0.772200
     20 N3         165.4520   167.6110   159.8010 na         1 GJF      -0.263000
     21 N4         164.3110   166.0290   158.7180 nd         1 GJF      -0.534100
     22 N5         163.8910   168.0540   161.6070 nb         1 GJF      -0.742000
     23 N6         161.9420   166.6810   161.4630 nb         1 GJF      -0.826000
     24 N7         161.5940   165.1170   159.8020 nv         1 GJF      -0.947500
     25 O6         168.4760   168.1250   157.3090 os         1 GJF      -0.589200
     26 P1         169.3450   166.4350   161.8200 p5         1 GJF       1.325500
     27 P2         169.2400   167.3960   156.1120 p5         1 GJF       1.370500
     28 C15        170.7230   165.3390   159.8080 c3         1 GJF       0.195400
     29 O7         169.4990   165.5090   160.5250 os         1 GJF      -0.583200
     30 C16        170.4510   164.5650   158.5440 c5         1 GJF       0.136100
     31 O8         169.9310   163.2750   158.8460 os         1 GJF      -0.386600
     32 C17        169.4260   165.1540   157.5730 c5         1 GJF       0.175100
     33 O9         170.0220   166.1890   156.8160 os         1 GJF      -0.529200
     34 C18        169.0360   163.9210   156.7640 c5         1 GJF       0.071100
     35 O10        170.0620   163.6600   155.8550 oh         1 GJF      -0.579800
     36 C19        168.9980   162.8740   157.8900 c5         1 GJF       0.244800
     37 C20        165.2060   161.5700   156.3150 ca         1 GJF       0.712900
     38 N8         163.1460   162.2580   159.0880 nv         1 GJF      -0.946500
     39 N9         165.9970   163.0000   159.9590 nd         1 GJF      -0.538100
     40 N10        167.6720   162.8130   158.4970 na         1 GJF      -0.293000
     41 H1         167.9660   163.5390   160.4940 h5         1 GJF       0.083800
     42 H2         168.0020   167.1590   159.4500 h1         1 GJF       0.071700
     43 H3         166.2130   169.0200   161.0610 h2         1 GJF       0.129700
     44 H4         168.1320   170.9110   159.0750 h1         1 GJF       0.104700
     45 H5         169.7880   168.7510   159.6280 h1         1 GJF       0.053700
     46 H6         169.5390   169.4850   161.7470 ho         1 GJF       0.437000
     47 H7         169.7590   164.8210   163.7600 hs         1 GJF       0.299800
     48 H8         169.4840   169.9510   157.3750 h1         1 GJF       0.071200
     49 H9         167.8130   170.0200   156.7880 h1         1 GJF       0.071200
     50 H10        166.1760   166.6920   157.9960 h5         1 GJF       0.066800
     51 H11        162.3050   168.0930   162.8990 h5         1 GJF       0.047100
     52 H12        160.7770   164.8000   160.2950 hn         1 GJF       0.445800
     53 H13        161.9730   164.5050   159.0980 hn         1 GJF       0.445800
     54 H14        168.2840   165.9240   154.2130 hs         1 GJF       0.324800
     55 H15        171.4450   164.7980   160.4230 h1         1 GJF       0.063200
     56 H16        171.1610   166.3030   159.5410 h1         1 GJF       0.063200
     57 H17        171.4170   164.4710   158.0320 h1         1 GJF       0.099700
     58 H18        168.5460   165.5140   158.1150 h1         1 GJF       0.080700
     59 H19        168.0630   164.0220   156.2770 h1         1 GJF       0.106700
     60 H20        169.8010   162.9200   155.2970 ho         1 GJF       0.427000
     61 H21        169.2390   161.8740   157.5170 h2         1 GJF       0.108700
     62 H22        165.0400   161.1750   155.3190 h5         1 GJF       0.047100
     63 H23        162.2980   161.8040   158.7900 hn         1 GJF       0.441800
     64 H24        163.2440   162.4260   160.0760 hn         1 GJF       0.441800
     65 O4         170.5470   167.2300   162.1490 o          1 GJF      -0.744300
     66 S1         168.5640   165.2370   163.3170 sh         1 GJF      -0.400200
     67 O5         170.1530   168.2170   155.3000 o          1 GJF      -0.704300
     68 S2         167.5830   166.6020   155.1330 sh         1 GJF      -0.503200
@<TRIPOS>BOND
     1     1     2 ar  
     2     1     6 ar  
     3     1    40 1   
     4     2     3 ar  
     5     2    39 1   
     6     3     5 ar  
     7     3    38 1   
     8     4    39 2   
     9     4    40 1   
    10     4    41 1   
    11     5    37 ar  
    12     6    37 ar  
    13     7     8 1   
    14     7    10 1   
    15     7    13 1   
    16     7    42 1   
    17     8    11 1   
    18     8    20 1   
    19     8    43 1   
    20     9    10 1   
    21     9    11 1   
    22     9    14 1   
    23     9    44 1   
    24    10    12 1   
    25    10    45 1   
    26    12    46 1   
    27    13    26 1   
    28    14    25 1   
    29    14    48 1   
    30    14    49 1   
    31    15    16 ar  
    32    15    20 1   
    33    15    22 ar  
    34    16    19 ar  
    35    16    21 1   
    36    17    20 1   
    37    17    21 2   
    38    17    50 1   
    39    18    22 ar  
    40    18    23 ar  
    41    18    51 1   
    42    19    23 ar  
    43    19    24 1   
    44    24    52 1   
    45    24    53 1   
    46    25    27 1   
    47    26    29 1   
    48    26    65 2   
    49    26    66 1   
    50    27    33 1   
    51    27    67 2   
    52    27    68 1   
    53    28    29 1   
    54    28    30 1   
    55    28    55 1   
    56    28    56 1   
    57    30    31 1   
    58    30    32 1   
    59    30    57 1   
    60    31    36 1   
    61    32    33 1   
    62    32    34 1   
    63    32    58 1   
    64    34    35 1   
    65    34    36 1   
    66    34    59 1   
    67    35    60 1   
    68    36    40 1   
    69    36    61 1   
    70    37    62 1   
    71    38    63 1   
    72    38    64 1   
    73    47    66 1   
    74    54    68 1   
@<TRIPOS>SUBSTRUCTURE
     1 GJF         1 TEMP              0 ****  ****    0 ROOT
