@<TRIPOS>MOLECULE
GJG
   33    34     1     0     0
SMALL
bcc


@<TRIPOS>ATOM
      1 N3          -1.1050    -1.5200     0.3550 nb         1 GJG      -0.771000
      2 C4          -0.2010    -0.6050    -0.0230 ca         1 GJG       0.708200
      3 C5          -2.3820    -1.1850     0.3760 ca         1 GJG       0.488200
      4 C8          -1.9230     1.0260    -0.3340 ca         1 GJG       0.003000
      5 C10         -0.5890     0.7080    -0.3700 ca         1 GJG      -0.335300
      6 C13          3.4210    -1.0670    -0.6830 c6         1 GJG      -0.093900
      7 C15          3.8410     1.4960     0.7010 c6         1 GJG      -0.071400
      8 O7          -4.6530     1.6220     0.0210 o          1 GJG      -0.617100
      9 N9          -5.2020    -0.5540     0.1720 nt         1 GJG      -0.674000
     10 C1          -2.8760     0.0690     0.0330 ca         1 GJG      -0.346900
     11 N6           1.0780    -1.0230    -0.0640 nu         1 GJG      -0.873900
     12 C11          2.2400    -0.1870    -0.2820 c6         1 GJG       0.240500
     13 C14          4.6790    -0.2380    -0.9150 c6         1 GJG      -0.071400
     14 C16          5.0220     0.6200     0.2980 c6         1 GJG      -0.078400
     15 C12          2.5890     0.6610     0.9440 c6         1 GJG      -0.093900
     16 H1          -3.0480    -1.9750     0.7120 h4         1 GJG       0.008100
     17 H2          -2.2370     2.0280    -0.5970 ha         1 GJG       0.155000
     18 H3           0.1410     1.4520    -0.6540 ha         1 GJG       0.145000
     19 H4           3.6060    -1.7960     0.1150 hc         1 GJG       0.048950
     20 H5           3.1670    -1.6340    -1.5810 hc         1 GJG       0.048950
     21 H6           4.0810     2.0720     1.5980 hc         1 GJG       0.043450
     22 H7           3.6440     2.2260    -0.0920 hc         1 GJG       0.043450
     23 H8          -6.1860    -0.3400     0.1750 hn         1 GJG       0.311000
     24 H9          -4.9520    -1.5220     0.0760 hn         1 GJG       0.311000
     25 H10          1.2370    -1.9530     0.2960 hn         1 GJG       0.441800
     26 H11          2.0280     0.4840    -1.1220 h1         1 GJG       0.059700
     27 H12          5.5130    -0.8990    -1.1620 hc         1 GJG       0.043450
     28 H13          4.5290     0.4100    -1.7850 hc         1 GJG       0.043450
     29 H14          5.8970     1.2390     0.0860 hc         1 GJG       0.042700
     30 H15          5.2970    -0.0280     1.1380 hc         1 GJG       0.042700
     31 H16          2.7490    -0.0100     1.7950 hc         1 GJG       0.048950
     32 H17          1.7470     1.3070     1.2070 hc         1 GJG       0.048950
     33 C2          -4.3090     0.4460     0.0720 c          1 GJG       0.700700
@<TRIPOS>BOND
     1     1     2 ar  
     2     1     3 ar  
     3     2     5 ar  
     4     2    11 1   
     5     3    10 ar  
     6     3    16 1   
     7     4     5 ar  
     8     4    10 ar  
     9     4    17 1   
    10     5    18 1   
    11     6    12 1   
    12     6    13 1   
    13     6    19 1   
    14     6    20 1   
    15     7    14 1   
    16     7    15 1   
    17     7    21 1   
    18     7    22 1   
    19     8    33 2   
    20     9    23 1   
    21     9    24 1   
    22     9    33 1   
    23    10    33 1   
    24    11    12 1   
    25    11    25 1   
    26    12    15 1   
    27    12    26 1   
    28    13    14 1   
    29    13    27 1   
    30    13    28 1   
    31    14    29 1   
    32    14    30 1   
    33    15    31 1   
    34    15    32 1   
@<TRIPOS>SUBSTRUCTURE
     1 GJG         1 TEMP              0 ****  ****    0 ROOT
