@<TRIPOS>MOLECULE
GJG
   33    34     1     0     0
SMALL
No Charge or Current Charge


@<TRIPOS>ATOM
      1 N3          -1.0180    -1.4500     0.1910 nb         1 GJG      -0.771000
      2 C4          -0.2220    -0.5240    -0.3290 ca         1 GJG       0.642900
      3 C5          -2.3240    -1.1340     0.3320 ca         1 GJG       0.422900
      4 C8          -2.0000     1.0710    -0.6040 ca         1 GJG       0.021000
      5 C10         -0.6470     0.7390    -0.7490 ca         1 GJG      -0.252000
      6 C13          3.4880    -1.0390    -0.7920 c6         1 GJG      -0.093900
      7 C15          3.7710     1.4230     0.8750 c6         1 GJG      -0.071400
      8 O7          -4.8060     1.4790    -0.1920 o          1 GJG      -0.617100
      9 N9          -5.1160    -0.5370     0.6690 nt         1 GJG      -0.607000
     10 C1          -2.8640     0.1090    -0.0460 ca         1 GJG      -0.281600
     11 N6           1.0570    -0.9840    -0.4220 nu         1 GJG      -0.929100
     12 C11          2.2610    -0.1460    -0.4720 c6         1 GJG       0.240500
     13 C14          4.7980    -0.2120    -0.8000 c6         1 GJG      -0.071400
     14 C16          4.9960     0.5360     0.5420 c6         1 GJG      -0.078400
     15 C12          2.4620     0.5930     0.8780 c6         1 GJG      -0.093900
     16 H1          -2.9440    -1.9160     0.7650 h4         1 GJG       0.008100
     17 H2          -2.3640     2.0480    -0.9190 ha         1 GJG       0.137000
     18 H3           0.0500     1.4490    -1.1810 ha         1 GJG       0.127000
     19 H4           3.5710    -1.8460    -0.0500 hc         1 GJG       0.048950
     20 H5           3.3530    -1.5230    -1.7690 hc         1 GJG       0.048950
     21 H6           3.9120     1.9000     1.8550 hc         1 GJG       0.043450
     22 H7           3.6920     2.2360     0.1400 hc         1 GJG       0.043450
     23 H8          -6.0980    -0.3370     0.7900 hn         1 GJG       0.311000
     24 H9          -4.7400    -1.4300     0.9460 hn         1 GJG       0.311000
     25 H10          1.1330    -1.9120    -0.0190 hn         1 GJG       0.497000
     26 H11          2.1700     0.6000    -1.2770 h1         1 GJG       0.059700
     27 H12          5.6560    -0.8730    -0.9880 hc         1 GJG       0.043450
     28 H13          4.7750     0.5120    -1.6270 hc         1 GJG       0.043450
     29 H14          5.9030     1.1540     0.4950 hc         1 GJG       0.042700
     30 H15          5.1570    -0.1910     1.3500 hc         1 GJG       0.042700
     31 H16          2.4910    -0.1340     1.7020 hc         1 GJG       0.048950
     32 H17          1.6110     1.2570     1.0780 hc         1 GJG       0.048950
     33 C2          -4.3190     0.4100     0.1320 c          1 GJG       0.633700
@<TRIPOS>BOND
     1     1     2 ar  
     2     1     3 ar  
     3     2     5 ar  
     4     2    11 1   
     5     3    10 ar  
     6     3    16 1   
     7     4     5 ar  
     8     4    10 ar  
     9     4    17 1   
    10     5    18 1   
    11     6    12 1   
    12     6    13 1   
    13     6    19 1   
    14     6    20 1   
    15     7    14 1   
    16     7    15 1   
    17     7    21 1   
    18     7    22 1   
    19     8    33 2   
    20     9    23 1   
    21     9    24 1   
    22     9    33 1   
    23    10    33 1   
    24    11    12 1   
    25    11    25 1   
    26    12    15 1   
    27    12    26 1   
    28    13    14 1   
    29    13    27 1   
    30    13    28 1   
    31    14    29 1   
    32    14    30 1   
    33    15    31 1   
    34    15    32 1   
@<TRIPOS>SUBSTRUCTURE
     1 GJG         1 TEMP              0 ****  ****    0 ROOT
