@<TRIPOS>MOLECULE
GJI
   42    45     1     0     0
SMALL
No Charge or Current Charge


@<TRIPOS>ATOM
      1 C11        -41.1690    36.9240   -19.0190 c6         1 GJI       0.189800
      2 C12        -42.4900    36.1020   -19.1850 c6         1 GJI       0.144800
      3 C14        -43.5430    38.1060   -18.1090 c6         1 GJI       0.144800
      4 C15        -42.7290    38.9270   -19.1640 c6         1 GJI       0.189800
      5 C02        -34.9640    38.0600   -20.6710 cc         1 GJI      -0.065300
      6 C04        -36.8660    39.3430   -20.6560 cc         1 GJI      -0.218500
      7 C05        -38.2690    39.6320   -20.4760 cc         1 GJI       0.420500
      8 C06        -38.8600    40.8220   -20.8370 cd         1 GJI      -0.281000
      9 C08        -40.3140    39.1500   -19.8880 cd         1 GJI       0.741300
     10 C16        -35.8270    40.1230   -21.1080 cd         1 GJI      -0.073300
     11 C17        -35.7960    41.5920   -21.4870 c6         1 GJI      -0.007100
     12 C18        -34.3470    42.1510   -21.4410 c6         1 GJI      -0.064400
     13 C19        -33.3360    41.2210   -22.1640 c6         1 GJI      -0.175400
     14 C20        -33.3320    39.7900   -21.6030 c          1 GJI       0.618700
     15 C22        -34.6650    39.3180   -21.1420 cd         1 GJI      -0.272600
     16 N03        -36.3260    38.0890   -20.3670 na         1 GJI      -0.078000
     17 N09        -39.0900    38.6710   -19.9450 nc         1 GJI      -0.774000
     18 N10        -41.3550    38.3690   -19.3830 nh         1 GJI      -0.784300
     19 N13        -43.6620    36.6460   -18.4240 n7         1 GJI      -0.849400
     20 O21        -32.3020    39.1280   -21.5360 o          1 GJI      -0.557100
     21 S07        -40.5780    40.7900   -20.4760 ss         1 GJI      -0.109400
     22 H1         -40.8240    36.8430   -17.9780 h1         1 GJI       0.057200
     23 H2         -40.4000    36.4560   -19.6510 h1         1 GJI       0.057200
     24 H3         -42.3150    35.0550   -18.8970 h1         1 GJI       0.059950
     25 H4         -42.7400    36.0980   -20.2570 h1         1 GJI       0.059950
     26 H5         -44.5440    38.5450   -17.9860 h1         1 GJI       0.059950
     27 H6         -43.0300    38.2120   -17.1410 h1         1 GJI       0.059950
     28 H7         -42.6710    39.9660   -18.8090 h1         1 GJI       0.057200
     29 H8         -43.2820    38.9400   -20.1140 h1         1 GJI       0.057200
     30 H9         -33.2840    37.0480   -19.7780 hc         1 GJI       0.056700
     31 H10        -34.6620    35.9900   -20.1210 hc         1 GJI       0.056700
     32 H11        -33.6320    36.5540   -21.4470 hc         1 GJI       0.056700
     33 H12        -38.4250    41.6910   -21.3050 h4         1 GJI       0.164000
     34 H13        -36.4020    42.1880   -20.7930 hc         1 GJI       0.048700
     35 H14        -36.2180    41.7330   -22.4910 hc         1 GJI       0.048700
     36 H15        -34.0370    42.2720   -20.3940 hc         1 GJI       0.044200
     37 H16        -34.3220    43.1550   -21.8880 hc         1 GJI       0.044200
     38 H17        -33.6800    41.1370   -23.2030 hc         1 GJI       0.064200
     39 H18        -32.3140    41.6240   -22.1820 hc         1 GJI       0.064200
     40 H19        -36.8640    37.3090   -20.0010 hn         1 GJI       0.363000
     41 H20        -44.5060    36.4890   -18.9920 hn         1 GJI       0.415000
     42 C01        -34.0890    36.8470   -20.4940 c3         1 GJI      -0.033800
@<TRIPOS>BOND
     1     1     2 1   
     2     1    18 1   
     3     1    22 1   
     4     1    23 1   
     5     2    19 1   
     6     2    24 1   
     7     2    25 1   
     8     3     4 1   
     9     3    19 1   
    10     3    26 1   
    11     3    27 1   
    12     4    18 1   
    13     4    28 1   
    14     4    29 1   
    15     5    15 2   
    16     5    16 1   
    17     5    42 1   
    18     6     7 1   
    19     6    10 2   
    20     6    16 1   
    21     7     8 2   
    22     7    17 1   
    23     8    21 1   
    24     8    33 1   
    25     9    17 2   
    26     9    18 1   
    27     9    21 1   
    28    10    11 1   
    29    10    15 1   
    30    11    12 1   
    31    11    34 1   
    32    11    35 1   
    33    12    13 1   
    34    12    36 1   
    35    12    37 1   
    36    13    14 1   
    37    13    38 1   
    38    13    39 1   
    39    14    15 1   
    40    14    20 2   
    41    16    40 1   
    42    19    41 1   
    43    30    42 1   
    44    31    42 1   
    45    32    42 1   
@<TRIPOS>SUBSTRUCTURE
     1 GJI         1 TEMP              0 ****  ****    0 ROOT
