@<TRIPOS>MOLECULE
GJI
   42    45     1     0     0
SMALL
abcg2


@<TRIPOS>ATOM
      1 C11        -41.0650    37.1170   -18.5500 c6         1 GJI       0.189800
      2 C12        -42.1090    36.1050   -19.0380 c6         1 GJI       0.144800
      3 C14        -43.5970    37.9180   -18.4710 c6         1 GJI       0.144800
      4 C15        -42.6250    39.0000   -18.9410 c6         1 GJI       0.189800
      5 C02        -35.1510    38.0360   -20.7820 cc         1 GJI      -0.065300
      6 C04        -36.9430    39.3980   -20.7350 cc         1 GJI      -0.218500
      7 C05        -38.3400    39.6960   -20.4930 cc         1 GJI       0.420500
      8 C06        -38.9970    40.8380   -20.8320 cd         1 GJI      -0.281000
      9 C08        -40.3270    39.1280   -19.7120 cd         1 GJI       0.741300
     10 C16        -35.8860    40.1580   -21.1710 cd         1 GJI      -0.073300
     11 C17        -35.8050    41.6010   -21.5390 c6         1 GJI      -0.007100
     12 C18        -34.3620    42.0880   -21.4100 c6         1 GJI      -0.064400
     13 C19        -33.3760    41.1670   -22.1260 c6         1 GJI      -0.175400
     14 C20        -33.4420    39.7280   -21.6530 c          1 GJI       0.618700
     15 C22        -34.7500    39.3000   -21.2100 cd         1 GJI      -0.272600
     16 N03        -36.4610    38.1270   -20.5070 na         1 GJI      -0.078000
     17 N09        -39.0940    38.7380   -19.8620 nc         1 GJI      -0.774000
     18 N10        -41.3120    38.4140   -19.1490 nh         1 GJI      -0.784300
     19 N13        -43.4390    36.6840   -19.2100 n7         1 GJI      -0.849400
     20 O21        -32.4660    38.9950   -21.6820 o          1 GJI      -0.557100
     21 S07        -40.6470    40.7360   -20.3250 ss         1 GJI      -0.109400
     22 H1         -41.0930    37.2060   -17.4600 h1         1 GJI       0.057200
     23 H2         -40.0650    36.7830   -18.8140 h1         1 GJI       0.057200
     24 H3         -42.1390    35.2820   -18.3170 h1         1 GJI       0.059950
     25 H4         -41.7910    35.6770   -19.9900 h1         1 GJI       0.059950
     26 H5         -44.6150    38.2920   -18.5830 h1         1 GJI       0.059950
     27 H6         -43.4600    37.7160   -17.4050 h1         1 GJI       0.059950
     28 H7         -42.5820    39.8260   -18.2200 h1         1 GJI       0.057200
     29 H8         -42.9890    39.4120   -19.8900 h1         1 GJI       0.057200
     30 H9         -33.5760    36.8920   -19.9040 hc         1 GJI       0.056700
     31 H10        -35.0310    35.9670   -20.2730 hc         1 GJI       0.056700
     32 H11        -33.9380    36.4610   -21.5650 hc         1 GJI       0.056700
     33 H12        -38.6340    41.7090   -21.3530 h4         1 GJI       0.164000
     34 H13        -36.4580    42.2050   -20.9040 hc         1 GJI       0.048700
     35 H14        -36.1540    41.7520   -22.5670 hc         1 GJI       0.048700
     36 H15        -34.0970    42.1480   -20.3510 hc         1 GJI       0.044200
     37 H16        -34.2730    43.0990   -21.8110 hc         1 GJI       0.044200
     38 H17        -33.5960    41.1620   -23.2010 hc         1 GJI       0.064200
     39 H18        -32.3520    41.5300   -22.0200 hc         1 GJI       0.064200
     40 H19        -37.0350    37.3710   -20.1650 hn         1 GJI       0.363000
     41 H20        -43.6040    36.8670   -20.1910 hn         1 GJI       0.415000
     42 C01        -34.3870    36.7730   -20.6220 c3         1 GJI      -0.033800
@<TRIPOS>BOND
     1     1     2 1   
     2     1    18 1   
     3     1    22 1   
     4     1    23 1   
     5     2    19 1   
     6     2    24 1   
     7     2    25 1   
     8     3     4 1   
     9     3    19 1   
    10     3    26 1   
    11     3    27 1   
    12     4    18 1   
    13     4    28 1   
    14     4    29 1   
    15     5    15 2   
    16     5    16 1   
    17     5    42 1   
    18     6     7 1   
    19     6    10 2   
    20     6    16 1   
    21     7     8 2   
    22     7    17 1   
    23     8    21 1   
    24     8    33 1   
    25     9    17 2   
    26     9    18 1   
    27     9    21 1   
    28    10    11 1   
    29    10    15 1   
    30    11    12 1   
    31    11    34 1   
    32    11    35 1   
    33    12    13 1   
    34    12    36 1   
    35    12    37 1   
    36    13    14 1   
    37    13    38 1   
    38    13    39 1   
    39    14    15 1   
    40    14    20 2   
    41    16    40 1   
    42    19    41 1   
    43    30    42 1   
    44    31    42 1   
    45    32    42 1   
@<TRIPOS>SUBSTRUCTURE
     1 GJI         1 TEMP              0 ****  ****    0 ROOT
