@<TRIPOS>MOLECULE
GJJ
   63    65     1     0     0
SMALL
No Charge or Current Charge


@<TRIPOS>ATOM
      1 C2           3.1750    -0.8240    -0.0260 ca         1 GJJ       0.725900
      2 C3           4.5730    -0.9360    -0.1030 ca         1 GJJ      -0.349600
      3 C9           0.9790    -2.1470     0.0190 ca         1 GJJ       0.345000
      4 C10          0.5010    -3.2950     0.6650 ca         1 GJJ      -0.170000
      5 C11         -0.8760    -3.5770     0.7040 ca         1 GJJ      -0.045500
      6 C12         -1.8080    -2.7160     0.0830 ca         1 GJJ      -0.191600
      7 C13         -1.3180    -1.5720    -0.5910 ca         1 GJJ      -0.045500
      8 C14          0.0600    -1.3000    -0.6250 ca         1 GJJ      -0.170000
      9 C15         -3.2870    -3.0450     0.1530 c          1 GJJ       0.622700
     10 O17         -3.6910    -4.0600     0.7040 o          1 GJJ      -0.613100
     11 C19         -6.0600    -3.4450    -1.3080 c3         1 GJJ      -0.103433
     12 C20         -6.0650    -0.9250    -1.2820 c3         1 GJJ      -0.103433
     13 C21         -6.2300    -2.1790     0.8970 c3         1 GJJ      -0.103433
     14 C22          3.0430     3.9860     0.3030 c5         1 GJJ       0.230800
     15 C24          0.7040     4.1710    -0.1230 c5         1 GJJ       0.087700
     16 N26         -0.5710     4.4910     0.5420 ns         1 GJJ      -0.499900
     17 C27          5.2460    -2.2740    -0.1530 c          1 GJJ       0.645700
     18 C30         -1.7450     4.1310    -0.0850 c          1 GJJ       0.606300
     19 C32         -2.9710     4.4590     0.6970 ce         1 GJJ      -0.306200
     20 C33         -4.2280     4.0990     0.3340 c2         1 GJJ      -0.225000
     21 N1           2.5230     0.3280     0.0620 nb         1 GJJ      -0.842000
     22 C4           5.3190     0.2590    -0.1210 ca         1 GJJ       0.031000
     23 C5           4.6270     1.4700    -0.0470 ca         1 GJJ      -0.300000
     24 C6           3.2320     1.4550     0.0490 ca         1 GJJ       0.704900
     25 N7           2.4670     2.6280     0.1340 nh         1 GJJ      -0.788300
     26 N8           2.3550    -1.9210     0.0010 nu         1 GJJ      -0.940900
     27 N16         -4.1390    -2.1320    -0.4420 ns         1 GJJ      -0.507900
     28 C18         -5.6050    -2.1900    -0.5210 c3         1 GJJ       0.139400
     29 C23          1.8050     4.7990     0.7660 c5         1 GJJ      -0.114400
     30 C25          0.9770     2.6520     0.0850 c5         1 GJJ       0.217800
     31 N28          6.5740    -2.3060    -0.3690 nt         1 GJJ      -0.591000
     32 O29          4.6570    -3.3280     0.0140 o          1 GJJ      -0.655100
     33 O31         -1.7820     3.5740    -1.1720 o          1 GJJ      -0.600100
     34 H1           1.1970    -3.9710     1.1540 ha         1 GJJ       0.133500
     35 H2          -1.2140    -4.4710     1.2250 ha         1 GJJ       0.118500
     36 H3          -1.9860    -0.8830    -1.1010 ha         1 GJJ       0.118500
     37 H4           0.4090    -0.4290    -1.1690 ha         1 GJJ       0.133500
     38 H5          -7.1470    -3.4360    -1.4570 hc         1 GJJ       0.043256
     39 H6          -5.5840    -3.4800    -2.2950 hc         1 GJJ       0.043256
     40 H7          -5.8090    -4.3700    -0.7760 hc         1 GJJ       0.043256
     41 H8          -5.7540    -0.0150    -0.7550 hc         1 GJJ       0.043256
     42 H9          -5.6360    -0.8960    -2.2910 hc         1 GJJ       0.043256
     43 H10         -7.1570    -0.9010    -1.3800 hc         1 GJJ       0.043256
     44 H11         -5.8730    -1.3180     1.4740 hc         1 GJJ       0.043256
     45 H12         -7.3230    -2.1170     0.8380 hc         1 GJJ       0.043256
     46 H13         -5.9830    -3.0890     1.4560 hc         1 GJJ       0.043256
     47 H14          3.8420     4.0180     1.0570 h1         1 GJJ       0.052700
     48 H15          3.4420     4.3680    -0.6480 h1         1 GJJ       0.052700
     49 H16          0.7700     4.4790    -1.1760 h1         1 GJJ       0.096700
     50 H17         -0.6430     4.9460     1.4440 hn         1 GJJ       0.313500
     51 H18         -2.8100     5.0030     1.6270 ha         1 GJJ       0.176000
     52 H20         -5.0960     4.3510     0.9450 ha         1 GJJ       0.177500
     53 H21         -4.4280     3.5430    -0.5840 ha         1 GJJ       0.177500
     54 H23          6.4050     0.2690    -0.1800 ha         1 GJJ       0.105000
     55 H24          5.1740     2.4060    -0.0620 ha         1 GJJ       0.125000
     56 H25          2.9270    -2.7610     0.1120 hn         1 GJJ       0.549000
     57 H26         -3.6920    -1.3300    -0.8610 hn         1 GJJ       0.309500
     58 H27          1.6200     4.6400     1.8360 hc         1 GJJ       0.063200
     59 H28          1.9250     5.8750     0.6040 hc         1 GJJ       0.063200
     60 H29          0.5490     2.2810     1.0280 h1         1 GJJ       0.062700
     61 H30          0.5670     2.0590    -0.7440 h1         1 GJJ       0.062700
     62 H31          7.0880    -1.4530    -0.5160 hn         1 GJJ       0.313000
     63 H32          7.0420    -3.1990    -0.3980 hn         1 GJJ       0.313000
@<TRIPOS>BOND
     1     1     2 ar  
     2     1    21 ar  
     3     1    26 1   
     4     2    17 1   
     5     2    22 ar  
     6     3     4 ar  
     7     3     8 ar  
     8     3    26 1   
     9     4     5 ar  
    10     4    34 1   
    11     5     6 ar  
    12     5    35 1   
    13     6     7 ar  
    14     6     9 1   
    15     7     8 ar  
    16     7    36 1   
    17     8    37 1   
    18     9    10 2   
    19     9    27 1   
    20    11    28 1   
    21    11    38 1   
    22    11    39 1   
    23    11    40 1   
    24    12    28 1   
    25    12    41 1   
    26    12    42 1   
    27    12    43 1   
    28    13    28 1   
    29    13    44 1   
    30    13    45 1   
    31    13    46 1   
    32    14    25 1   
    33    14    29 1   
    34    14    47 1   
    35    14    48 1   
    36    15    16 1   
    37    15    29 1   
    38    15    30 1   
    39    15    49 1   
    40    16    18 1   
    41    16    50 1   
    42    17    31 1   
    43    17    32 2   
    44    18    19 1   
    45    18    33 2   
    46    19    20 2   
    47    19    51 1   
    48    20    52 1   
    49    20    53 1   
    50    21    24 ar  
    51    22    23 ar  
    52    22    54 1   
    53    23    24 ar  
    54    23    55 1   
    55    24    25 1   
    56    25    30 1   
    57    26    56 1   
    58    27    28 1   
    59    27    57 1   
    60    29    58 1   
    61    29    59 1   
    62    30    60 1   
    63    30    61 1   
    64    31    62 1   
    65    31    63 1   
@<TRIPOS>SUBSTRUCTURE
     1 GJJ         1 TEMP              0 ****  ****    0 ROOT
