@<TRIPOS>MOLECULE
GJJ
   63    65     1     0     0
SMALL
abcg2


@<TRIPOS>ATOM
      1 C2           3.0560    -0.8830     0.0760 ca         1 GJJ       0.725900
      2 C3           4.4760    -0.9800     0.0450 ca         1 GJJ      -0.349600
      3 C9           0.9480    -2.2380     0.0890 ca         1 GJJ       0.345000
      4 C10          0.5340    -3.5800     0.0630 ca         1 GJJ      -0.170000
      5 C11         -0.8020    -3.9170     0.0920 ca         1 GJJ      -0.045500
      6 C12         -1.7920    -2.9340     0.1270 ca         1 GJJ      -0.191600
      7 C13         -1.3800    -1.6050     0.1620 ca         1 GJJ      -0.045500
      8 C14         -0.0410    -1.2490     0.1450 ca         1 GJJ      -0.170000
      9 C15         -3.2230    -3.3600     0.1710 c          1 GJJ       0.622700
     10 O17         -3.5270    -4.4770     0.5750 o          1 GJJ      -0.613100
     11 C19         -5.9870    -3.7040    -1.2660 c3         1 GJJ      -0.103433
     12 C20         -6.1190    -1.2590    -0.7840 c3         1 GJJ      -0.103433
     13 C21         -6.1290    -2.8780     1.1060 c3         1 GJJ      -0.103433
     14 C22          2.9590     3.8880     0.2860 c5         1 GJJ       0.230800
     15 C24          0.6300     4.0520    -0.1870 c5         1 GJJ       0.087700
     16 N26         -0.6990     4.4110     0.2260 ns         1 GJJ      -0.499900
     17 C27          5.1800    -2.2730    -0.0420 c          1 GJJ       0.645700
     18 C30         -1.5640     5.1190    -0.5260 c          1 GJJ       0.606300
     19 C32         -2.8660     5.3830     0.1420 ce         1 GJJ      -0.306200
     20 C33         -3.8220     6.0870    -0.4510 c2         1 GJJ      -0.225000
     21 N1           2.4240     0.2790     0.1090 nb         1 GJJ      -0.842000
     22 C4           5.1620     0.2380     0.1090 ca         1 GJJ       0.031000
     23 C5           4.5160     1.4450     0.1640 ca         1 GJJ      -0.300000
     24 C6           3.1050     1.4250     0.1440 ca         1 GJJ       0.704900
     25 N7           2.3830     2.5560     0.1660 nh         1 GJJ      -0.788300
     26 N8           2.3120    -2.0260     0.0680 nu         1 GJJ      -0.940900
     27 N16         -4.1150    -2.4500    -0.2560 ns         1 GJJ      -0.507900
     28 C18         -5.5750    -2.6000    -0.2920 c3         1 GJJ       0.139400
     29 C23          1.7500     4.7660     0.5690 c5         1 GJJ      -0.114400
     30 C25          0.9380     2.5720     0.0520 c5         1 GJJ       0.217800
     31 N28          6.5070    -2.2510    -0.2510 nt         1 GJJ      -0.591000
     32 O29          4.5910    -3.3550     0.0800 o          1 GJJ      -0.655100
     33 O31         -1.3110     5.5110    -1.6580 o          1 GJJ      -0.600100
     34 H1           1.2760    -4.3680     0.0230 ha         1 GJJ       0.133500
     35 H2          -1.0800    -4.9630     0.0790 ha         1 GJJ       0.118500
     36 H3          -2.1040    -0.8020     0.2340 ha         1 GJJ       0.118500
     37 H4           0.2320    -0.2100     0.1870 ha         1 GJJ       0.133500
     38 H5          -7.0750    -3.7680    -1.3220 hc         1 GJJ       0.043256
     39 H6          -5.6120    -3.4950    -2.2700 hc         1 GJJ       0.043256
     40 H7          -5.6090    -4.6760    -0.9520 hc         1 GJJ       0.043256
     41 H8          -5.8540    -0.4500    -0.1010 hc         1 GJJ       0.043256
     42 H9          -5.7300    -1.0140    -1.7750 hc         1 GJJ       0.043256
     43 H10         -7.2060    -1.2960    -0.8540 hc         1 GJJ       0.043256
     44 H11         -5.8160    -2.1030     1.8070 hc         1 GJJ       0.043256
     45 H12         -7.2200    -2.8800     1.0740 hc         1 GJJ       0.043256
     46 H13         -5.8060    -3.8430     1.4920 hc         1 GJJ       0.043256
     47 H14          3.6950     3.9320     1.0900 h1         1 GJJ       0.052700
     48 H15          3.4580     4.1850    -0.6420 h1         1 GJJ       0.052700
     49 H16          0.7160     4.2700    -1.2510 h1         1 GJJ       0.096700
     50 H17         -0.9750     4.1560     1.1620 hn         1 GJJ       0.313500
     51 H18         -3.0200     4.9820     1.1380 ha         1 GJJ       0.176000
     52 H20         -4.7670     6.2740     0.0410 ha         1 GJJ       0.177500
     53 H21         -3.6940     6.5000    -1.4430 ha         1 GJJ       0.177500
     54 H23          6.2440     0.2580     0.1290 ha         1 GJJ       0.105000
     55 H24          5.0780     2.3650     0.2110 ha         1 GJJ       0.125000
     56 H25          2.8990    -2.8600     0.0770 hn         1 GJJ       0.549000
     57 H26         -3.7530    -1.6310    -0.7160 hn         1 GJJ       0.309500
     58 H27          1.5290     4.7740     1.6400 hc         1 GJJ       0.063200
     59 H28          1.8940     5.7950     0.2440 hc         1 GJJ       0.063200
     60 H29          0.4570     2.2130     0.9690 h1         1 GJJ       0.062700
     61 H30          0.5920     1.9460    -0.7710 h1         1 GJJ       0.062700
     62 H31          7.0100    -1.4270    -0.5260 hn         1 GJJ       0.313000
     63 H32          6.9860    -3.1270    -0.3770 hn         1 GJJ       0.313000
@<TRIPOS>BOND
     1     1     2 ar  
     2     1    21 ar  
     3     1    26 1   
     4     2    17 1   
     5     2    22 ar  
     6     3     4 ar  
     7     3     8 ar  
     8     3    26 1   
     9     4     5 ar  
    10     4    34 1   
    11     5     6 ar  
    12     5    35 1   
    13     6     7 ar  
    14     6     9 1   
    15     7     8 ar  
    16     7    36 1   
    17     8    37 1   
    18     9    10 2   
    19     9    27 1   
    20    11    28 1   
    21    11    38 1   
    22    11    39 1   
    23    11    40 1   
    24    12    28 1   
    25    12    41 1   
    26    12    42 1   
    27    12    43 1   
    28    13    28 1   
    29    13    44 1   
    30    13    45 1   
    31    13    46 1   
    32    14    25 1   
    33    14    29 1   
    34    14    47 1   
    35    14    48 1   
    36    15    16 1   
    37    15    29 1   
    38    15    30 1   
    39    15    49 1   
    40    16    18 1   
    41    16    50 1   
    42    17    31 1   
    43    17    32 2   
    44    18    19 1   
    45    18    33 2   
    46    19    20 2   
    47    19    51 1   
    48    20    52 1   
    49    20    53 1   
    50    21    24 ar  
    51    22    23 ar  
    52    22    54 1   
    53    23    24 ar  
    54    23    55 1   
    55    24    25 1   
    56    25    30 1   
    57    26    56 1   
    58    27    28 1   
    59    27    57 1   
    60    29    58 1   
    61    29    59 1   
    62    30    60 1   
    63    30    61 1   
    64    31    62 1   
    65    31    63 1   
@<TRIPOS>SUBSTRUCTURE
     1 GJJ         1 TEMP              0 ****  ****    0 ROOT
