@<TRIPOS>MOLECULE
GJK
   26    26     1     0     0
SMALL
No Charge or Current Charge


@<TRIPOS>ATOM
      1 C12         -4.0900    -0.2830     0.0860 c          1 GJK       0.574300
      2 C13         -5.2860     0.6640     0.0770 c3         1 GJK      -0.196100
      3 C01          3.1790    -2.5530    -0.0070 c3         1 GJK       0.156900
      4 C03          2.2410    -0.2630    -0.0780 ca         1 GJK       0.039100
      5 C04          2.4900     1.1220    -0.1410 ca         1 GJK       0.138100
      6 O05          3.7760     1.5760    -0.1930 oh         1 GJK      -0.528100
      7 C06          1.4250     2.0340    -0.1520 ca         1 GJK      -0.133000
      8 C07          0.1000     1.5690    -0.0990 ca         1 GJK      -0.076000
      9 C08         -0.1700     0.1850    -0.0340 ca         1 GJK      -0.083800
     10 C09          0.9060    -0.7270    -0.0240 ca         1 GJK      -0.128000
     11 C10         -1.5680    -0.3370     0.0230 ce         1 GJK      -0.069200
     12 C11         -2.7470     0.3550     0.0250 cf         1 GJK      -0.326200
     13 O14         -4.2330    -1.4970     0.1400 o          1 GJK      -0.531100
     14 H1          -5.1770     1.3810     0.8990 hc         1 GJK       0.059367
     15 H2          -5.2210     1.3100    -0.8050 hc         1 GJK       0.059367
     16 H3          -6.2460     0.1360     0.1240 hc         1 GJK       0.059367
     17 H4           4.1630    -3.0390    -0.0120 h1         1 GJK       0.043367
     18 H5           2.6590    -2.8510     0.9120 h1         1 GJK       0.043367
     19 H6           2.6130    -2.9250    -0.8700 h1         1 GJK       0.043367
     20 H7           4.3510     0.7780    -0.1750 ho         1 GJK       0.484000
     21 H8           1.6260     3.1010    -0.2010 ha         1 GJK       0.133000
     22 H9          -0.7080     2.2950    -0.1080 ha         1 GJK       0.118000
     23 H10          0.6920    -1.7900     0.0260 ha         1 GJK       0.120000
     24 H11         -1.6260    -1.4280     0.0700 ha         1 GJK       0.188000
     25 H12         -2.7410     1.4410    -0.0200 ha         1 GJK       0.181000
     26 O02          3.3290    -1.1220    -0.0700 os         1 GJK      -0.368100
@<TRIPOS>BOND
     1     1     2 1   
     2     1    12 1   
     3     1    13 2   
     4     2    14 1   
     5     2    15 1   
     6     2    16 1   
     7     3    17 1   
     8     3    18 1   
     9     3    19 1   
    10     3    26 1   
    11     4     5 ar  
    12     4    10 ar  
    13     4    26 1   
    14     5     6 1   
    15     5     7 ar  
    16     6    20 1   
    17     7     8 ar  
    18     7    21 1   
    19     8     9 ar  
    20     8    22 1   
    21     9    10 ar  
    22     9    11 1   
    23    10    23 1   
    24    11    12 2   
    25    11    24 1   
    26    12    25 1   
@<TRIPOS>SUBSTRUCTURE
     1 GJK         1 TEMP              0 ****  ****    0 ROOT
