@<TRIPOS>MOLECULE
GJK
   26    26     1     0     0
SMALL
bcc


@<TRIPOS>ATOM
      1 C12         -4.0120    -0.2830     0.0770 c          1 GJK       0.574300
      2 C13         -5.1910     0.6560     0.0800 c3         1 GJK      -0.196100
      3 C01          3.1030    -2.4870     0.0020 c3         1 GJK       0.133700
      4 C03          2.1820    -0.2980    -0.0780 ca         1 GJK       0.039100
      5 C04          2.4600     1.0760    -0.1480 ca         1 GJK       0.138100
      6 O05          3.7230     1.5280    -0.2090 oh         1 GJK      -0.489100
      7 C06          1.4120     1.9830    -0.1550 ca         1 GJK      -0.151000
      8 C07          0.1020     1.5430    -0.1010 ca         1 GJK      -0.094000
      9 C08         -0.1940     0.1830    -0.0360 ca         1 GJK      -0.083800
     10 C09          0.8700    -0.7300    -0.0250 ca         1 GJK      -0.146000
     11 C10         -1.5510    -0.3350     0.0160 ce         1 GJK      -0.019200
     12 C11         -2.6890     0.3710     0.0270 cf         1 GJK      -0.276200
     13 O14         -4.1460    -1.4870     0.1140 o          1 GJK      -0.531100
     14 H1          -5.1460     1.3150     0.9500 hc         1 GJK       0.059367
     15 H2          -5.1670     1.3000    -0.8010 hc         1 GJK       0.059367
     16 H3          -6.1320     0.1130     0.0980 hc         1 GJK       0.059367
     17 H4           4.0970    -2.9250    -0.0070 h1         1 GJK       0.043367
     18 H5           2.5960    -2.7840     0.9230 h1         1 GJK       0.043367
     19 H6           2.5410    -2.8720    -0.8530 h1         1 GJK       0.043367
     20 H7           4.3380     0.7860    -0.1680 ho         1 GJK       0.445000
     21 H8           1.6320     3.0420    -0.2050 ha         1 GJK       0.151000
     22 H9          -0.6920     2.2770    -0.1100 ha         1 GJK       0.136000
     23 H10          0.6480    -1.7880     0.0280 ha         1 GJK       0.138000
     24 H11         -1.6430    -1.4180     0.0480 ha         1 GJK       0.138000
     25 H12         -2.6800     1.4550    -0.0020 ha         1 GJK       0.131000
     26 O02          3.2760    -1.0880    -0.0730 os         1 GJK      -0.344900
@<TRIPOS>BOND
     1     1     2 1   
     2     1    12 1   
     3     1    13 2   
     4     2    14 1   
     5     2    15 1   
     6     2    16 1   
     7     3    17 1   
     8     3    18 1   
     9     3    19 1   
    10     3    26 1   
    11     4     5 ar  
    12     4    10 ar  
    13     4    26 1   
    14     5     6 1   
    15     5     7 ar  
    16     6    20 1   
    17     7     8 ar  
    18     7    21 1   
    19     8     9 ar  
    20     8    22 1   
    21     9    10 ar  
    22     9    11 1   
    23    10    23 1   
    24    11    12 2   
    25    11    24 1   
    26    12    25 1   
@<TRIPOS>SUBSTRUCTURE
     1 GJK         1 TEMP              0 ****  ****    0 ROOT
