@<TRIPOS>MOLECULE
GJL
   42    44     1     0     0
SMALL
No Charge or Current Charge


@<TRIPOS>ATOM
      1 C10          2.0430    -3.2500    82.8120 c          1 GJL       0.620900
      2 C15          4.4780    -4.0490    82.7150 c          1 GJL       0.590200
      3 C01          0.9660    -2.7220    83.7380 ca         1 GJL      -0.109600
      4 C02          1.3190    -1.7490    84.6920 ca         1 GJL      -0.100000
      5 C03          0.3550    -1.1850    85.5320 ca         1 GJL      -0.039000
      6 C04         -0.9950    -1.5770    85.4440 ca         1 GJL      -0.220500
      7 C05         -1.3750    -2.5670    84.4900 ca         1 GJL      -0.025900
      8 C06         -0.3880    -3.1360    83.6310 ca         1 GJL      -0.039300
      9 C07         -0.7730    -4.2020    82.5930 c3         1 GJL      -0.059800
     10 C09         -2.8050    -2.9760    84.3350 ce         1 GJL       0.304900
     11 C11          3.2770    -3.7350    83.4530 cc         1 GJL      -0.415400
     12 C12          3.3910    -4.0380    84.7950 cd         1 GJL       0.105000
     13 C18         -5.0540    -3.0660    83.7850 c5         1 GJL       0.107600
     14 C19         -3.7380    -2.4380    83.2690 c5         1 GJL      -0.165700
     15 C23         -2.6640     0.7040    85.6000 c3         1 GJL      -0.342100
     16 N13          4.6920    -4.5280    84.9720 na         1 GJL      -0.543200
     17 N14          5.3630    -4.5020    83.6910 n          1 GJL      -0.279200
     18 N16         -3.2890    -4.0420    84.8850 n2         1 GJL      -0.206700
     19 O17         -4.6160    -4.2570    84.4710 os         1 GJL      -0.287000
     20 O20          1.9100    -3.1870    81.5970 o          1 GJL      -0.504100
     21 O21         -3.3840    -1.5460    86.7250 o          1 GJL      -0.519000
     22 O22         -1.4420    -0.2190    87.7160 o          1 GJL      -0.519000
     23 O24          4.7050    -3.9640    81.5170 o          1 GJL      -0.525000
     24 S08         -2.1750    -0.7340    86.5510 sy         1 GJL       1.065500
     25 H1           2.3490    -1.4020    84.7650 ha         1 GJL       0.129000
     26 H2           0.6680    -0.4220    86.2450 ha         1 GJL       0.152000
     27 H3           0.0240    -4.9410    82.4540 hc         1 GJL       0.057033
     28 H4          -1.6570    -4.7820    82.8760 hc         1 GJL       0.057033
     29 H5          -0.9770    -3.7410    81.6190 hc         1 GJL       0.057033
     30 H8           2.6690    -3.9560    85.6110 h4         1 GJL       0.234000
     31 H9          -5.5510    -2.4090    84.5120 h1         1 GJL       0.067200
     32 H10         -5.7650    -3.3200    82.9870 h1         1 GJL       0.067200
     33 H11         -3.4690    -2.8100    82.2750 hc         1 GJL       0.078200
     34 H12         -3.7700    -1.3450    83.2360 hc         1 GJL       0.078200
     35 H13         -3.3680     1.2870    86.2030 h1         1 GJL       0.104367
     36 H14         -1.7650     1.2910    85.3820 h1         1 GJL       0.104367
     37 H15         -3.1370     0.3640    84.6750 h1         1 GJL       0.104367
     38 H16          6.4670    -6.1600    82.9830 h1         1 GJL       0.057033
     39 H17          7.2180    -4.5660    82.6760 h1         1 GJL       0.057033
     40 H18          7.2390    -5.2590    84.3220 h1         1 GJL       0.057033
     41 H6           5.2120    -4.7880    85.8200 hn         1 GJL       0.543000
     42 C25          6.6500    -5.1620    83.4020 c3         1 GJL       0.102300
@<TRIPOS>BOND
     1     1     3 1   
     2     1    11 1   
     3     1    20 2   
     4     2    11 1   
     5     2    17 1   
     6     2    23 2   
     7     3     4 ar  
     8     3     8 ar  
     9     4     5 ar  
    10     4    25 1   
    11     5     6 ar  
    12     5    26 1   
    13     6     7 ar  
    14     6    24 1   
    15     7     8 ar  
    16     7    10 1   
    17     8     9 1   
    18     9    27 1   
    19     9    28 1   
    20     9    29 1   
    21    10    14 1   
    22    10    18 2   
    23    11    12 2   
    24    12    16 1   
    25    12    30 1   
    26    13    14 1   
    27    13    19 1   
    28    13    31 1   
    29    13    32 1   
    30    14    33 1   
    31    14    34 1   
    32    15    24 1   
    33    15    35 1   
    34    15    36 1   
    35    15    37 1   
    36    16    17 1   
    37    16    41 1   
    38    17    42 1   
    39    18    19 1   
    40    21    24 2   
    41    22    24 2   
    42    38    42 1   
    43    39    42 1   
    44    40    42 1   
@<TRIPOS>SUBSTRUCTURE
     1 GJL         1 TEMP              0 ****  ****    0 ROOT
