@<TRIPOS>MOLECULE
GJL
   42    44     1     0     0
SMALL
abcg2


@<TRIPOS>ATOM
      1 C10          2.1550    -2.8410    82.7920 c          1 GJL       0.620900
      2 C15          4.3920    -4.1510    82.6410 c          1 GJL       0.590200
      3 C01          1.0920    -2.3510    83.7460 ca         1 GJL      -0.109600
      4 C02          1.4270    -1.3770    84.6770 ca         1 GJL      -0.100000
      5 C03          0.4600    -0.8570    85.5220 ca         1 GJL      -0.039000
      6 C04         -0.8450    -1.3240    85.4390 ca         1 GJL      -0.220500
      7 C05         -1.2030    -2.3100    84.5050 ca         1 GJL      -0.025900
      8 C06         -0.2200    -2.8340    83.6480 ca         1 GJL      -0.039300
      9 C07         -0.5490    -3.9210    82.6580 c3         1 GJL      -0.059800
     10 C09         -2.5970    -2.7870    84.3280 ce         1 GJL       0.304900
     11 C11          3.2170    -3.6380    83.3460 cc         1 GJL      -0.415400
     12 C12          3.3000    -4.0960    84.6560 cd         1 GJL       0.105000
     13 C18         -4.7780    -3.0840    83.5620 c5         1 GJL       0.107600
     14 C19         -3.4750    -2.3970    83.1630 c5         1 GJL      -0.165700
     15 C23         -3.3500     0.0410    85.7640 c3         1 GJL      -0.342100
     16 N13          4.4020    -4.8170    84.7930 na         1 GJL      -0.543200
     17 N14          5.0780    -4.8780    83.6040 n          1 GJL      -0.279200
     18 N16         -3.1230    -3.6460    85.1060 n2         1 GJL      -0.206700
     19 O17         -4.4100    -3.9690    84.6680 os         1 GJL      -0.287000
     20 O20          2.0700    -2.5370    81.6050 o          1 GJL      -0.504100
     21 O21         -2.4560    -1.7100    87.5110 o          1 GJL      -0.519000
     22 O22         -1.2890     0.4670    87.3000 o          1 GJL      -0.519000
     23 O24          4.7820    -4.0230    81.4790 o          1 GJL      -0.525000
     24 S08         -1.9770    -0.6390    86.6580 sy         1 GJL       1.065500
     25 H1           2.4460    -1.0180    84.7430 ha         1 GJL       0.129000
     26 H2           0.7120    -0.0960    86.2450 ha         1 GJL       0.152000
     27 H3           0.2970    -4.5950    82.5310 hc         1 GJL       0.057033
     28 H4          -1.4020    -4.5130    82.9820 hc         1 GJL       0.057033
     29 H5          -0.7800    -3.5000    81.6770 hc         1 GJL       0.057033
     30 H8           2.6320    -3.9580    85.4900 h4         1 GJL       0.234000
     31 H9          -5.5220    -2.3780    83.9330 h1         1 GJL       0.067200
     32 H10         -5.2100    -3.7020    82.7780 h1         1 GJL       0.067200
     33 H11         -3.0540    -2.7770    82.2310 hc         1 GJL       0.078200
     34 H12         -3.5670    -1.3160    83.0660 hc         1 GJL       0.078200
     35 H13         -3.9250     0.5940    86.5060 h1         1 GJL       0.104367
     36 H14         -2.9730     0.7100    84.9930 h1         1 GJL       0.104367
     37 H15         -3.9520    -0.7580    85.3450 h1         1 GJL       0.104367
     38 H16          6.2240    -6.6260    83.7170 h1         1 GJL       0.057033
     39 H17          6.6450    -5.4630    82.4390 h1         1 GJL       0.057033
     40 H18          7.0920    -5.1200    84.1260 h1         1 GJL       0.057033
     41 H6           4.7310    -5.3230    85.6030 hn         1 GJL       0.543000
     42 C25          6.3390    -5.5680    83.4760 c3         1 GJL       0.102300
@<TRIPOS>BOND
     1     1     3 1   
     2     1    11 1   
     3     1    20 2   
     4     2    11 1   
     5     2    17 1   
     6     2    23 2   
     7     3     4 ar  
     8     3     8 ar  
     9     4     5 ar  
    10     4    25 1   
    11     5     6 ar  
    12     5    26 1   
    13     6     7 ar  
    14     6    24 1   
    15     7     8 ar  
    16     7    10 1   
    17     8     9 1   
    18     9    27 1   
    19     9    28 1   
    20     9    29 1   
    21    10    14 1   
    22    10    18 2   
    23    11    12 2   
    24    12    16 1   
    25    12    30 1   
    26    13    14 1   
    27    13    19 1   
    28    13    31 1   
    29    13    32 1   
    30    14    33 1   
    31    14    34 1   
    32    15    24 1   
    33    15    35 1   
    34    15    36 1   
    35    15    37 1   
    36    16    17 1   
    37    16    41 1   
    38    17    42 1   
    39    18    19 1   
    40    21    24 2   
    41    22    24 2   
    42    38    42 1   
    43    39    42 1   
    44    40    42 1   
@<TRIPOS>SUBSTRUCTURE
     1 GJL         1 TEMP              0 ****  ****    0 ROOT
