@<TRIPOS>MOLECULE
GJM
   18    18     1     0     0
SMALL
No Charge or Current Charge


@<TRIPOS>ATOM
      1 C01         19.1080   167.3300    23.3130 c          1 GJM       0.730000
      2 C02         20.1810   168.4810    23.4090 c6         1 GJM       0.022300
      3 C03         19.6890   169.6270    24.3370 c6         1 GJM      -0.092400
      4 C04         20.7560   170.7430    24.4550 c6         1 GJM      -0.076400
      5 C05         21.2160   171.2140    23.0540 c6         1 GJM      -0.109400
      6 C06         21.6420   170.0040    22.1880 c6         1 GJM       0.156600
      7 O01         19.3910   166.3000    23.9130 o          1 GJM      -0.720500
      8 O02         18.4500   167.2600    22.2800 o          1 GJM      -0.720500
      9 O03         20.5670   169.0430    22.1170 os         1 GJM      -0.417000
     10 H1          21.0810   168.0380    23.8610 h1         1 GJM       0.008700
     11 H2          18.7520   170.0450    23.9420 hc         1 GJM       0.049200
     12 H3          19.4570   169.2280    25.3340 hc         1 GJM       0.049200
     13 H4          21.6220   170.3650    25.0170 hc         1 GJM       0.017700
     14 H5          20.3560   171.5910    25.0270 hc         1 GJM       0.017700
     15 H6          22.0520   171.9200    23.1490 hc         1 GJM       0.026200
     16 H7          20.4000   171.7550    22.5550 hc         1 GJM       0.026200
     17 H8          22.5310   169.5210    22.6170 h1         1 GJM       0.016200
     18 H9          21.8880   170.3390    21.1700 h1         1 GJM       0.016200
@<TRIPOS>BOND
     1     1     2 1   
     2     1     7 1   
     3     1     8 1   
     4     2     3 1   
     5     2     9 1   
     6     2    10 1   
     7     3     4 1   
     8     3    11 1   
     9     3    12 1   
    10     4     5 1   
    11     4    13 1   
    12     4    14 1   
    13     5     6 1   
    14     5    15 1   
    15     5    16 1   
    16     6     9 1   
    17     6    17 1   
    18     6    18 1   
@<TRIPOS>SUBSTRUCTURE
     1 GJM         1 TEMP              0 ****  ****    0 ROOT
