@<TRIPOS>MOLECULE
GJM
   18    18     1     0     0
SMALL
abcg2


@<TRIPOS>ATOM
      1 C01         19.2170   167.3480    23.2010 c          1 GJM       0.730000
      2 C02         20.2410   168.4920    23.3630 c6         1 GJM       0.022300
      3 C03         19.7600   169.5590    24.3440 c6         1 GJM      -0.092400
      4 C04         20.7850   170.6830    24.4660 c6         1 GJM      -0.076400
      5 C05         21.1640   171.2030    23.0850 c6         1 GJM      -0.109400
      6 C06         21.5540   170.0420    22.1840 c6         1 GJM       0.156600
      7 O01         18.8910   166.7920    24.2700 o          1 GJM      -0.720500
      8 O02         18.8190   167.0760    22.0560 o          1 GJM      -0.720500
      9 O03         20.5420   169.0650    22.1070 os         1 GJM      -0.417000
     10 H1          21.1620   168.0490    23.7840 h1         1 GJM       0.008700
     11 H2          18.8050   169.9690    23.9960 hc         1 GJM       0.049200
     12 H3          19.5750   169.0990    25.3140 hc         1 GJM       0.049200
     13 H4          21.6810   170.3030    24.9690 hc         1 GJM       0.017700
     14 H5          20.3990   171.4920    25.0910 hc         1 GJM       0.017700
     15 H6          21.9930   171.9120    23.1460 hc         1 GJM       0.026200
     16 H7          20.3170   171.7380    22.6440 hc         1 GJM       0.026200
     17 H8          22.4910   169.5950    22.5550 h1         1 GJM       0.016200
     18 H9          21.7430   170.3860    21.1650 h1         1 GJM       0.016200
@<TRIPOS>BOND
     1     1     2 1   
     2     1     7 1   
     3     1     8 1   
     4     2     3 1   
     5     2     9 1   
     6     2    10 1   
     7     3     4 1   
     8     3    11 1   
     9     3    12 1   
    10     4     5 1   
    11     4    13 1   
    12     4    14 1   
    13     5     6 1   
    14     5    15 1   
    15     5    16 1   
    16     6     9 1   
    17     6    17 1   
    18     6    18 1   
@<TRIPOS>SUBSTRUCTURE
     1 GJM         1 TEMP              0 ****  ****    0 ROOT
