@<TRIPOS>MOLECULE
GJN
   32    35     1     0     0
SMALL
No Charge or Current Charge


@<TRIPOS>ATOM
      1 C13         28.4840   -33.0460     1.2700 ca         1 GJN      -0.107000
      2 C15         29.8630   -34.9450     1.9150 ca         1 GJN      -0.108000
      3 C11         28.5880   -35.0170    -0.1530 ca         1 GJN      -0.108000
      4 C12         28.0940   -33.7270     0.1050 ca         1 GJN      -0.108000
      5 C           29.9280   -38.1330     1.3550 ca         1 GJN       0.577900
      6 C9          30.0060   -37.0170     0.4650 cp         1 GJN      -0.173000
      7 C10         29.4780   -35.6490     0.7490 cp         1 GJN      -0.026000
      8 C14         29.3700   -33.6540     2.1750 ca         1 GJN      -0.108000
      9 C2          30.6500   -37.3730    -0.7300 ca         1 GJN       0.047800
     10 N3          30.9570   -36.5350    -1.8090 na         1 GJN      -0.235600
     11 C3          31.6580   -37.2580    -2.7960 ca         1 GJN      -0.003200
     12 C8          31.7990   -38.5660    -2.3120 cp         1 GJN      -0.174500
     13 C1          31.1630   -38.6240    -1.0010 cp         1 GJN       0.242500
     14 N2          31.0640   -39.6290    -0.1100 nb         1 GJN      -0.227000
     15 N1          30.4350   -39.3690     1.0740 nb         1 GJN      -0.425000
     16 C7          32.4700   -39.5370    -3.0790 ca         1 GJN      -0.036000
     17 C6          32.9860   -39.1510    -4.3370 ca         1 GJN      -0.143000
     18 C5          32.8330   -37.8220    -4.8110 ca         1 GJN      -0.077000
     19 C4          32.1600   -36.8530    -4.0350 ca         1 GJN      -0.142000
     20 H1          28.1020   -32.0470     1.4700 ha         1 GJN       0.116000
     21 H2          30.5620   -35.3970     2.6150 ha         1 GJN       0.118000
     22 H3          28.2720   -35.5390    -1.0530 ha         1 GJN       0.118000
     23 H4          27.4070   -33.2570    -0.5960 ha         1 GJN       0.116000
     24 H5          29.5180   -38.8190     3.2200 hn         1 GJN       0.478500
     25 H6          29.0870   -37.1610     2.9380 hn         1 GJN       0.478500
     26 H7          29.6780   -33.1250     3.0740 ha         1 GJN       0.116000
     27 H8          30.7340   -35.5480    -1.8580 hn         1 GJN       0.362000
     28 H9          32.5870   -40.5550    -2.7140 ha         1 GJN       0.132000
     29 H10         33.5080   -39.8820    -4.9490 ha         1 GJN       0.117000
     30 H11         33.2390   -37.5470    -5.7820 ha         1 GJN       0.113000
     31 H12         32.0390   -35.8310    -4.3880 ha         1 GJN       0.118000
     32 N           29.3180   -38.0740     2.5620 nv         1 GJN      -1.048900
@<TRIPOS>BOND
     1     1     4 ar  
     2     1     8 ar  
     3     1    20 1   
     4     2     7 ar  
     5     2     8 ar  
     6     2    21 1   
     7     3     4 ar  
     8     3     7 ar  
     9     3    22 1   
    10     4    23 1   
    11     5     6 ar  
    12     5    15 ar  
    13     5    32 1   
    14     6     7 1   
    15     6     9 ar  
    16     8    26 1   
    17     9    10 1   
    18     9    13 ar  
    19    10    11 1   
    20    10    27 1   
    21    11    12 ar  
    22    11    19 ar  
    23    12    13 1   
    24    12    16 ar  
    25    13    14 ar  
    26    14    15 ar  
    27    16    17 ar  
    28    16    28 1   
    29    17    18 ar  
    30    17    29 1   
    31    18    19 ar  
    32    18    30 1   
    33    19    31 1   
    34    24    32 1   
    35    25    32 1   
@<TRIPOS>SUBSTRUCTURE
     1 GJN         1 TEMP              0 ****  ****    0 ROOT
