@<TRIPOS>MOLECULE
GJN
   32    35     1     0     0
SMALL
bcc


@<TRIPOS>ATOM
      1 C13         28.5020   -33.1060     1.3080 ca         1 GJN      -0.125000
      2 C15         29.9930   -34.9260     1.8110 ca         1 GJN      -0.126000
      3 C11         28.4820   -35.0910    -0.0520 ca         1 GJN      -0.126000
      4 C12         27.9950   -33.8230     0.2320 ca         1 GJN      -0.126000
      5 C           29.8910   -38.1100     1.2740 ca         1 GJN       0.643200
      6 C9          30.0150   -36.9960     0.4160 cp         1 GJN      -0.238300
      7 C10         29.4850   -35.6560     0.7350 cp         1 GJN      -0.026000
      8 C14         29.5020   -33.6600     2.0960 ca         1 GJN      -0.126000
      9 C2          30.6770   -37.2720    -0.7590 ca         1 GJN      -0.017500
     10 N3          30.9950   -36.4970    -1.8270 na         1 GJN      -0.185300
     11 C3          31.6840   -37.2510    -2.7590 ca         1 GJN      -0.003200
     12 C8          31.8220   -38.5660    -2.2780 cp         1 GJN      -0.174500
     13 C1          31.1730   -38.5810    -0.9880 cp         1 GJN       0.307800
     14 N2          31.0320   -39.5550    -0.1220 nb         1 GJN      -0.227000
     15 N1          30.3940   -39.3240     0.9980 nb         1 GJN      -0.425000
     16 C7          32.4830   -39.5200    -3.0410 ca         1 GJN      -0.054000
     17 C6          32.9950   -39.1460    -4.2740 ca         1 GJN      -0.161000
     18 C5          32.8500   -37.8350    -4.7380 ca         1 GJN      -0.095000
     19 C4          32.1940   -36.8680    -3.9910 ca         1 GJN      -0.160000
     20 H1          28.1200   -32.1180     1.5300 ha         1 GJN       0.134000
     21 H2          30.7870   -35.3450     2.4170 ha         1 GJN       0.136000
     22 H3          28.0770   -35.6510    -0.8860 ha         1 GJN       0.136000
     23 H4          27.2160   -33.3970    -0.3870 ha         1 GJN       0.134000
     24 H5          29.3410   -38.7730     3.0990 hn         1 GJN       0.423300
     25 H6          29.0270   -37.1290     2.8500 hn         1 GJN       0.423300
     26 H7          29.9060   -33.1040     2.9320 ha         1 GJN       0.134000
     27 H8          30.7640   -35.5210    -1.9320 hn         1 GJN       0.311700
     28 H9          32.5940   -40.5350    -2.6800 ha         1 GJN       0.150000
     29 H10         33.5120   -39.8740    -4.8840 ha         1 GJN       0.135000
     30 H11         33.2580   -37.5670    -5.7040 ha         1 GJN       0.131000
     31 H12         32.0840   -35.8560    -4.3580 ha         1 GJN       0.136000
     32 N           29.1860   -38.0320     2.4360 nv         1 GJN      -0.938500
@<TRIPOS>BOND
     1     1     4 ar  
     2     1     8 ar  
     3     1    20 1   
     4     2     7 ar  
     5     2     8 ar  
     6     2    21 1   
     7     3     4 ar  
     8     3     7 ar  
     9     3    22 1   
    10     4    23 1   
    11     5     6 ar  
    12     5    15 ar  
    13     5    32 1   
    14     6     7 1   
    15     6     9 ar  
    16     8    26 1   
    17     9    10 1   
    18     9    13 ar  
    19    10    11 1   
    20    10    27 1   
    21    11    12 ar  
    22    11    19 ar  
    23    12    13 1   
    24    12    16 ar  
    25    13    14 ar  
    26    14    15 ar  
    27    16    17 ar  
    28    16    28 1   
    29    17    18 ar  
    30    17    29 1   
    31    18    19 ar  
    32    18    30 1   
    33    19    31 1   
    34    24    32 1   
    35    25    32 1   
@<TRIPOS>SUBSTRUCTURE
     1 GJN         1 TEMP              0 ****  ****    0 ROOT
