@<TRIPOS>MOLECULE
GJO
   56    59     1     0     0
SMALL
bcc


@<TRIPOS>ATOM
      1 C10         24.4570   -22.0840    23.2900 cp         1 GJO      -0.035000
      2 C13         25.2450   -24.7560    23.1260 ca         1 GJO      -0.140000
      3 C15         25.2990   -22.5070    22.2620 ca         1 GJO      -0.122000
      4 C21         28.7580   -18.3990    30.6050 ca         1 GJO      -0.218500
      5 C22         28.5020   -17.0990    31.0490 ca         1 GJO       0.207100
      6 C24         27.1870   -16.7070    31.3250 ca         1 GJO      -0.218500
      7 C1          23.6370   -19.9910    22.2320 ca         1 GJO      -0.178000
      8 C2          23.2200   -18.6640    22.2800 ca         1 GJO      -0.015000
      9 C3          23.1930   -17.9700    23.4740 ca         1 GJO      -0.210200
     10 C4          23.6050   -18.6230    24.6470 ca         1 GJO       0.018800
     11 C5          24.0280   -19.9760    24.5920 ca         1 GJO      -0.128800
     12 C6          24.0370   -20.6740    23.3730 cp         1 GJO       0.082000
     13 C7          26.1450   -17.5920    31.1560 ca         1 GJO       0.021000
     14 C8          24.1930   -19.2360    26.6970 cc         1 GJO      -0.145300
     15 C9          24.4040   -20.3370    25.9150 cd         1 GJO      -0.124200
     16 C11         23.9920   -23.0160    24.2150 ca         1 GJO      -0.143000
     17 C12         24.3750   -24.3510    24.1340 ca         1 GJO       0.065600
     18 C14         25.6860   -23.8350    22.1870 ca         1 GJO      -0.110000
     19 C16         26.4120   -18.8850    30.7140 ca         1 GJO      -0.352500
     20 C18         23.1280   -26.9720    23.5390 c3         1 GJO      -0.178100
     21 C19         27.7120   -19.2880    30.4430 ca         1 GJO       0.021000
     22 C23         30.7970   -16.5030    30.9740 c3         1 GJO       0.122700
     23 N1          23.7130   -18.2110    25.9250 na         1 GJO      -0.106400
     24 N2          23.9060   -25.2460    25.1100 ns         1 GJO      -0.499100
     25 N3          24.8350   -20.0760    28.8470 ns         1 GJO      -0.639300
     26 O1          23.0070   -27.1290    25.9160 o          1 GJO      -0.584100
     27 O2          25.5800   -21.3720    30.7990 o          1 GJO      -0.596300
     28 O3          23.9150   -19.5270    31.1600 o          1 GJO      -0.596300
     29 O4          24.1590   -17.9240    28.6410 o          1 GJO      -0.555100
     30 O5          22.3950   -16.0850    22.4690 o          1 GJO      -0.219500
     31 O6          22.7510   -16.0360    24.5740 o          1 GJO      -0.219500
     32 S01         25.1050   -20.0320    30.5100 sy         1 GJO       1.334900
     33 H1          25.5920   -25.7790    23.0800 ha         1 GJO       0.144000
     34 H2          25.6760   -21.7960    21.5390 ha         1 GJO       0.141000
     35 H3          29.7620   -18.7360    30.3870 ha         1 GJO       0.148500
     36 H4          26.9920   -15.7000    31.6720 ha         1 GJO       0.148500
     37 H5          23.6200   -20.5020    21.2800 ha         1 GJO       0.150000
     38 H6          22.9050   -18.1810    21.3660 ha         1 GJO       0.170000
     39 H7          25.1360   -17.2730    31.3730 ha         1 GJO       0.157000
     40 H8          24.7900   -21.2910    26.2330 ha         1 GJO       0.162000
     41 H9          23.2990   -22.7150    24.9910 ha         1 GJO       0.146000
     42 H10         26.3600   -24.1550    21.4030 ha         1 GJO       0.140000
     43 H11         22.3090   -27.6880    23.5440 hc         1 GJO       0.065033
     44 H12         22.9040   -26.1800    22.8270 hc         1 GJO       0.065033
     45 H13         24.0170   -27.4950    23.1840 hc         1 GJO       0.065033
     46 H14         27.9270   -20.2930    30.1040 ha         1 GJO       0.157000
     47 H15         31.3780   -15.6130    31.2000 h1         1 GJO       0.047700
     48 H16         31.1440   -17.3220    31.6060 h1         1 GJO       0.047700
     49 H17         30.9500   -16.7690    29.9260 h1         1 GJO       0.047700
     50 H18         23.4760   -17.2940    26.2670 hn         1 GJO       0.352700
     51 H19         23.9160   -24.9120    26.0640 hn         1 GJO       0.323500
     52 H20         25.0680   -20.9520    28.3960 hn         1 GJO       0.348500
     53 N4          22.7490   -16.6060    23.5010 no         1 GJO       0.327200
     54 C17         23.3380   -26.4710    24.9430 c          1 GJO       0.679100
     55 C20         24.3840   -19.0010    28.1320 c          1 GJO       0.732300
     56 O7          29.4440   -16.1730    31.2380 os         1 GJO      -0.307900
@<TRIPOS>BOND
     1     1     3 ar  
     2     1    12 1   
     3     1    16 ar  
     4     2    17 ar  
     5     2    18 ar  
     6     2    33 1   
     7     3    18 ar  
     8     3    34 1   
     9     4     5 ar  
    10     4    21 ar  
    11     4    35 1   
    12     5     6 ar  
    13     5    56 1   
    14     6    13 ar  
    15     6    36 1   
    16     7     8 ar  
    17     7    12 ar  
    18     7    37 1   
    19     8     9 ar  
    20     8    38 1   
    21     9    10 ar  
    22     9    53 1   
    23    10    11 ar  
    24    10    23 1   
    25    11    12 ar  
    26    11    15 1   
    27    13    19 ar  
    28    13    39 1   
    29    14    15 2   
    30    14    23 1   
    31    14    55 1   
    32    15    40 1   
    33    16    17 ar  
    34    16    41 1   
    35    17    24 1   
    36    18    42 1   
    37    19    21 ar  
    38    19    32 1   
    39    20    43 1   
    40    20    44 1   
    41    20    45 1   
    42    20    54 1   
    43    21    46 1   
    44    22    47 1   
    45    22    48 1   
    46    22    49 1   
    47    22    56 1   
    48    23    50 1   
    49    24    51 1   
    50    24    54 1   
    51    25    32 1   
    52    25    52 1   
    53    25    55 1   
    54    26    54 2   
    55    27    32 2   
    56    28    32 2   
    57    29    55 2   
    58    30    53 1   
    59    31    53 1   
@<TRIPOS>SUBSTRUCTURE
     1 GJO         1 TEMP              0 ****  ****    0 ROOT
