@<TRIPOS>MOLECULE
GJO
   56    59     1     0     0
SMALL
No Charge or Current Charge


@<TRIPOS>ATOM
      1 C10         24.4210   -21.9890    23.2990 cp         1 GJO      -0.035000
      2 C13         25.2800   -24.6910    23.2850 ca         1 GJO      -0.122000
      3 C15         25.3480   -22.4510    22.3350 ca         1 GJO      -0.104000
      4 C21         28.8240   -18.5580    30.5660 ca         1 GJO      -0.200500
      5 C22         28.5630   -17.2830    31.1080 ca         1 GJO       0.207100
      6 C24         27.2440   -16.9140    31.4090 ca         1 GJO      -0.200500
      7 C1          23.5870   -19.9150    22.0990 ca         1 GJO      -0.160000
      8 C2          23.1450   -18.5730    22.0890 ca         1 GJO       0.003000
      9 C3          23.0710   -17.8260    23.2930 ca         1 GJO      -0.210200
     10 C4          23.4620   -18.4840    24.4810 ca         1 GJO       0.018800
     11 C5          23.8920   -19.7890    24.4790 ca         1 GJO      -0.128800
     12 C6          23.9670   -20.5650    23.3000 cp         1 GJO       0.082000
     13 C7          26.1830   -17.8040    31.1760 ca         1 GJO       0.039000
     14 C8          23.9920   -18.9750    26.6730 cc         1 GJO      -0.145300
     15 C9          24.2290   -20.0770    25.8560 cd         1 GJO      -0.174200
     16 C11         23.9220   -22.9190    24.2430 ca         1 GJO      -0.125000
     17 C12         24.3300   -24.2660    24.2340 ca         1 GJO      -0.027000
     18 C14         25.7800   -23.7870    22.3330 ca         1 GJO      -0.092000
     19 C16         26.4450   -19.0790    30.6370 ca         1 GJO      -0.352500
     20 C18         23.3490   -27.1730    23.8310 c3         1 GJO      -0.178100
     21 C19         27.7670   -19.4540    30.3300 ca         1 GJO       0.039000
     22 C23         30.9460   -16.6390    31.0880 c3         1 GJO       0.145900
     23 N1          23.5080   -17.9960    25.7810 na         1 GJO      -0.156700
     24 N2          23.7980   -25.1380    25.2200 ns         1 GJO      -0.173000
     25 N3          24.7020   -19.9950    28.7190 ns         1 GJO      -0.572300
     26 O1          23.3330   -27.1180    26.2330 o          1 GJO      -0.584100
     27 O2          25.6110   -21.5950    30.3970 o          1 GJO      -0.525500
     28 O3          23.9250   -19.8040    31.1070 o          1 GJO      -0.525500
     29 O4          23.9780   -17.8470    28.7660 o          1 GJO      -0.555100
     30 O5          22.2920   -15.9090    22.1750 o          1 GJO      -0.409500
     31 O6          22.5370   -15.7790    24.3370 o          1 GJO      -0.409500
     32 S01         25.0930   -20.2250    30.3250 sy         1 GJO       1.193300
     33 H1          25.6530   -25.7110    23.2850 ha         1 GJO       0.126000
     34 H2          25.7490   -21.7610    21.5960 ha         1 GJO       0.123000
     35 H3          29.8340   -18.8720    30.3210 ha         1 GJO       0.130500
     36 H4          27.0420   -15.9310    31.8240 ha         1 GJO       0.130500
     37 H5          23.6230   -20.4640    21.1610 ha         1 GJO       0.132000
     38 H6          22.8600   -18.1250    21.1380 ha         1 GJO       0.152000
     39 H7          25.1650   -17.4940    31.4120 ha         1 GJO       0.139000
     40 H8          24.6340   -21.0280    26.1910 ha         1 GJO       0.212000
     41 H9          23.1880   -22.5910    24.9760 ha         1 GJO       0.128000
     42 H10         26.5110   -24.1200    21.5990 ha         1 GJO       0.122000
     43 H11         22.6720   -28.0330    23.8940 hc         1 GJO       0.065033
     44 H12         23.0300   -26.4510    23.0710 hc         1 GJO       0.065033
     45 H13         24.3270   -27.5280    23.4930 hc         1 GJO       0.065033
     46 H14         27.9840   -20.4360    29.9080 ha         1 GJO       0.139000
     47 H15         31.5670   -15.7770    31.3610 h1         1 GJO       0.047700
     48 H16         31.2930   -17.5040    31.6670 h1         1 GJO       0.047700
     49 H17         31.1010   -16.8440    30.0210 h1         1 GJO       0.047700
     50 H18         23.2330   -17.0540    26.0460 hn         1 GJO       0.403000
     51 H19         23.7200   -24.7200    26.1380 hn         1 GJO       0.157000
     52 H20         24.9050   -20.8060    28.1650 hn         1 GJO       0.348500
     53 N4          22.6010   -16.4020    23.2690 no         1 GJO       0.707200
     54 C17         23.5240   -26.4970    25.1950 c          1 GJO       0.612100
     55 C20         24.2140   -18.8690    28.1410 c          1 GJO       0.665300
     56 O7          29.5610   -16.3630    31.3600 os         1 GJO      -0.331100
@<TRIPOS>BOND
     1     1     3 ar  
     2     1    12 1   
     3     1    16 ar  
     4     2    17 ar  
     5     2    18 ar  
     6     2    33 1   
     7     3    18 ar  
     8     3    34 1   
     9     4     5 ar  
    10     4    21 ar  
    11     4    35 1   
    12     5     6 ar  
    13     5    56 1   
    14     6    13 ar  
    15     6    36 1   
    16     7     8 ar  
    17     7    12 ar  
    18     7    37 1   
    19     8     9 ar  
    20     8    38 1   
    21     9    10 ar  
    22     9    53 1   
    23    10    11 ar  
    24    10    23 1   
    25    11    12 ar  
    26    11    15 1   
    27    13    19 ar  
    28    13    39 1   
    29    14    15 2   
    30    14    23 1   
    31    14    55 1   
    32    15    40 1   
    33    16    17 ar  
    34    16    41 1   
    35    17    24 1   
    36    18    42 1   
    37    19    21 ar  
    38    19    32 1   
    39    20    43 1   
    40    20    44 1   
    41    20    45 1   
    42    20    54 1   
    43    21    46 1   
    44    22    47 1   
    45    22    48 1   
    46    22    49 1   
    47    22    56 1   
    48    23    50 1   
    49    24    51 1   
    50    24    54 1   
    51    25    32 1   
    52    25    52 1   
    53    25    55 1   
    54    26    54 2   
    55    27    32 2   
    56    28    32 2   
    57    29    55 2   
    58    30    53 1   
    59    31    53 1   
@<TRIPOS>SUBSTRUCTURE
     1 GJO         1 TEMP              0 ****  ****    0 ROOT
