@<TRIPOS>MOLECULE
GJP
   20    21     1     0     0
SMALL
No Charge or Current Charge


@<TRIPOS>ATOM
      1 C4          -1.3870    -0.9100    -0.0040 ca         1 GJP       0.310000
      2 C5          -2.7480    -1.2690    -0.0490 ca         1 GJP      -0.119000
      3 C6          -3.7570    -0.2920    -0.0360 ca         1 GJP      -0.106000
      4 C7          -3.4100     1.0650     0.0220 ca         1 GJP      -0.177000
      5 C8          -2.0590     1.4430     0.0680 ca         1 GJP      -0.042000
      6 C9          -1.0430     0.4590     0.0550 ca         1 GJP      -0.158000
      7 C10          0.3200     0.8060     0.0990 ca         1 GJP       0.277100
      8 C3           0.8570    -1.5300     0.0250 ca         1 GJP       0.437900
      9 N           -0.4470    -1.8790    -0.0180 nb         1 GJP      -0.766000
     10 C2           1.2930    -0.2030     0.0850 ca         1 GJP      -0.389600
     11 O1           3.5320    -0.8700     0.1120 o          1 GJP      -0.674000
     12 O2           3.1150     1.2420     0.1810 o          1 GJP      -0.674000
     13 O3           0.7070     2.1080     0.1570 oh         1 GJP      -0.651100
     14 H1          -3.0230    -2.3200    -0.0940 ha         1 GJP       0.111000
     15 H2          -4.8030    -0.5880    -0.0710 ha         1 GJP       0.089000
     16 H3          -4.1880     1.8250     0.0330 ha         1 GJP       0.092000
     17 H4          -1.8090     2.5020     0.1130 ha         1 GJP       0.118000
     18 H5           1.5600    -2.3630     0.0110 h4         1 GJP       0.020100
     19 H7           1.7060     2.0560     0.1780 ho         1 GJP       0.565000
     20 C1           2.7600     0.0730     0.1290 c          1 GJP       0.735600
@<TRIPOS>BOND
     1     1     2 ar  
     2     1     6 ar  
     3     1     9 ar  
     4     2     3 ar  
     5     2    14 1   
     6     3     4 ar  
     7     3    15 1   
     8     4     5 ar  
     9     4    16 1   
    10     5     6 ar  
    11     5    17 1   
    12     6     7 ar  
    13     7    10 ar  
    14     7    13 1   
    15     8     9 ar  
    16     8    10 ar  
    17     8    18 1   
    18    10    20 1   
    19    11    20 1   
    20    12    20 1   
    21    13    19 1   
@<TRIPOS>SUBSTRUCTURE
     1 GJP         1 TEMP              0 ****  ****    0 ROOT
