@<TRIPOS>MOLECULE
GJP
   20    21     1     0     0
SMALL
bcc


@<TRIPOS>ATOM
      1 C4          -1.3870    -0.9070    -0.0030 ca         1 GJP       0.440600
      2 C5          -2.7540    -1.2580    -0.0490 ca         1 GJP      -0.202300
      3 C6          -3.7270    -0.2930    -0.0360 ca         1 GJP      -0.124000
      4 C7          -3.3820     1.0700     0.0240 ca         1 GJP      -0.195000
      5 C8          -2.0630     1.4430     0.0690 ca         1 GJP      -0.060000
      6 C9          -1.0470     0.4660     0.0570 ca         1 GJP      -0.223300
      7 C10          0.3390     0.8050     0.1020 ca         1 GJP       0.277100
      8 C3           0.7970    -1.5520     0.0240 ca         1 GJP       0.503200
      9 N           -0.4620    -1.9030    -0.0180 nb         1 GJP      -0.766000
     10 C2           1.2710    -0.2320     0.0850 ca         1 GJP      -0.454900
     11 O1           3.5710    -0.8020     0.1160 o          1 GJP      -0.779300
     12 O2           2.9930     1.3470     0.1770 o          1 GJP      -0.779300
     13 O3           0.7170     2.0530     0.1550 oh         1 GJP      -0.612100
     14 H1          -3.0120    -2.3090    -0.0960 ha         1 GJP       0.129000
     15 H2          -4.7710    -0.5780    -0.0720 ha         1 GJP       0.107000
     16 H3          -4.1600     1.8220     0.0330 ha         1 GJP       0.110000
     17 H4          -1.7980     2.4900     0.1150 ha         1 GJP       0.136000
     18 H5           1.5250    -2.3580     0.0120 h4         1 GJP       0.020100
     19 H7           1.7970     1.9580     0.1730 ho         1 GJP       0.526000
     20 C1           2.7290     0.0930     0.1290 c          1 GJP       0.946200
@<TRIPOS>BOND
     1     1     2 ar  
     2     1     6 ar  
     3     1     9 ar  
     4     2     3 ar  
     5     2    14 1   
     6     3     4 ar  
     7     3    15 1   
     8     4     5 ar  
     9     4    16 1   
    10     5     6 ar  
    11     5    17 1   
    12     6     7 ar  
    13     7    10 ar  
    14     7    13 1   
    15     8     9 ar  
    16     8    10 ar  
    17     8    18 1   
    18    10    20 1   
    19    11    20 1   
    20    12    20 1   
    21    13    19 1   
@<TRIPOS>SUBSTRUCTURE
     1 GJP         1 TEMP              0 ****  ****    0 ROOT
