@<TRIPOS>MOLECULE
GJQ
   37    39     1     0     0
SMALL
bcc


@<TRIPOS>ATOM
      1 CAA         -1.2000     0.4400    -0.2260 ca         1 GJQ      -0.121000
      2 CAB         -2.1530     1.3310     0.2410 ca         1 GJQ       0.026400
      3 CL1         -2.1140     2.9640    -0.2990 cl         1 GJQ      -0.060400
      4 CAD         -3.1220     0.9040     1.1430 ca         1 GJQ       0.028400
      5 CL2         -4.3100     1.9980     1.7320 cl         1 GJQ      -0.063400
      6 CAF         -3.1350    -0.4150     1.5720 ca         1 GJQ      -0.112000
      7 CAG         -2.1880    -1.3080     1.1010 ca         1 GJQ      -0.116000
      8 CAH         -1.2220    -0.8820     0.1990 ca         1 GJQ       0.120600
      9 NAI         -0.2320    -1.7890    -0.2460 nh         1 GJQ      -0.724000
     10 CAJ         -0.2540    -2.3550    -1.4750 c2         1 GJQ       0.920100
     11 NAK         -1.2500    -2.0350    -2.3090 nv         1 GJQ      -0.940800
     12 NAL          0.6570    -3.2030    -1.8810 ne         1 GJQ      -0.898000
     13 CAM          1.5920    -3.5610    -0.9490 ce         1 GJQ       0.885200
     14 NAN          2.4320    -4.5410    -1.3800 nv         1 GJQ      -0.890800
     15 NAO          1.7590    -3.0710     0.2350 n2         1 GJQ      -0.782900
     16 CAP          0.9700    -1.9500     0.6000 c6         1 GJQ       0.523000
     17 CAQ          1.7650    -0.6530     0.5660 ca         1 GJQ      -0.073300
     18 CAR          2.4740    -0.2890    -0.5760 ca         1 GJQ      -0.121500
     19 CAS          3.1590     0.9090    -0.6300 ca         1 GJQ      -0.068500
     20 CAT          3.1350     1.7460     0.4800 ca         1 GJQ      -0.176200
     21 NAU          3.8520     3.0100     0.4280 no         1 GJQ       0.314200
     22 OAW          3.7750     3.7480     1.3820 o          1 GJQ      -0.210000
     23 OAV          4.4820     3.2650    -0.5710 o          1 GJQ      -0.210000
     24 CAX          2.4450     1.4050     1.6320 ca         1 GJQ      -0.068500
     25 CAY          1.7620     0.1990     1.6630 ca         1 GJQ      -0.121500
     26 H1          -0.4420     0.7780    -0.9200 ha         1 GJQ       0.166000
     27 H2          -3.8920    -0.7440     2.2710 ha         1 GJQ       0.158000
     28 H3          -2.2030    -2.3370     1.4330 ha         1 GJQ       0.155000
     29 H5          -2.0450    -1.4900    -2.0270 hn         1 GJQ       0.451300
     30 H6          -1.3370    -2.5700    -3.1560 hn         1 GJQ       0.451300
     31 H8           2.0860    -5.1480    -2.1030 hn         1 GJQ       0.423300
     32 H9           2.9970    -4.9920    -0.6800 hn         1 GJQ       0.423300
     33 H11          0.6040    -2.0830     1.6250 h2         1 GJQ       0.073700
     34 H12          2.4930    -0.9390    -1.4420 ha         1 GJQ       0.150500
     35 H13          3.7010     1.1820    -1.5240 ha         1 GJQ       0.169500
     36 H14          2.4300     2.0560     2.4930 ha         1 GJQ       0.169500
     37 H15          1.2180    -0.0760     2.5570 ha         1 GJQ       0.150500
@<TRIPOS>BOND
     1     1     2 ar  
     2     1     8 ar  
     3     1    26 1   
     4     2     3 1   
     5     2     4 ar  
     6     4     5 1   
     7     4     6 ar  
     8     6     7 ar  
     9     6    27 1   
    10     7     8 ar  
    11     7    28 1   
    12     8     9 1   
    13     9    10 1   
    14     9    16 1   
    15    10    11 1   
    16    10    12 2   
    17    11    29 1   
    18    11    30 1   
    19    12    13 1   
    20    13    14 1   
    21    13    15 2   
    22    14    31 1   
    23    14    32 1   
    24    15    16 1   
    25    16    17 1   
    26    16    33 1   
    27    17    18 ar  
    28    17    25 ar  
    29    18    19 ar  
    30    18    34 1   
    31    19    20 ar  
    32    19    35 1   
    33    20    21 1   
    34    20    24 ar  
    35    21    22 1   
    36    21    23 1   
    37    24    25 ar  
    38    24    36 1   
    39    25    37 1   
@<TRIPOS>SUBSTRUCTURE
     1 GJQ         1 TEMP              0 ****  ****    0 ROOT
