@<TRIPOS>MOLECULE
GJQ
   37    39     1     0     0
SMALL
No Charge or Current Charge


@<TRIPOS>ATOM
      1 CAA         -1.3450     0.1780    -0.9480 ca         1 GJQ      -0.103000
      2 CAB         -2.1690     1.2640    -0.6100 ca         1 GJQ       0.118000
      3 Cl1         -2.4360     2.5360    -1.8030 cl         1 GJQ      -0.152000
      4 CAD         -2.7630     1.3290     0.6670 ca         1 GJQ       0.120000
      5 Cl2         -3.8010     2.6800     1.1230 cl         1 GJQ      -0.155000
      6 CAF         -2.5250     0.3040     1.5980 ca         1 GJQ      -0.094000
      7 CAG         -1.6970    -0.7800     1.2550 ca         1 GJQ      -0.098000
      8 CAH         -1.1040    -0.8530    -0.0200 ca         1 GJQ       0.259000
      9 NAI         -0.2460    -1.9280    -0.3380 nh         1 GJQ      -0.862400
     10 CAJ         -0.3130    -2.5680    -1.5180 c2         1 GJQ       0.920100
     11 NAK         -1.5230    -2.8910    -1.8680 nv         1 GJQ      -1.051200
     12 NAL          0.5440    -3.3530    -1.9890 ne         1 GJQ      -0.898000
     13 CAM          1.7220    -3.2500    -1.3700 ce         1 GJQ       0.885200
     14 NAN          2.3490    -4.2370    -1.9350 nv         1 GJQ      -1.001200
     15 NAO          1.8540    -3.0510    -0.1380 n2         1 GJQ      -0.782900
     16 CAP          0.9790    -2.0550     0.4580 c6         1 GJQ       0.523000
     17 CAQ          1.7060    -0.7070     0.6240 ca         1 GJQ      -0.073300
     18 CAR          2.1330     0.0340    -0.4990 ca         1 GJQ      -0.103500
     19 CAS          2.7680     1.2770    -0.3370 ca         1 GJQ      -0.050500
     20 CAT          2.9880     1.8050     0.9570 ca         1 GJQ      -0.176200
     21 NAU          3.6640     3.1310     1.1330 no         1 GJQ       0.694200
     22 OAW          3.8340     3.5530     2.2850 o          1 GJQ      -0.400000
     23 OAV          4.0200     3.7470     0.1200 o          1 GJQ      -0.400000
     24 CAX          2.5590     1.0610     2.0810 ca         1 GJQ      -0.050500
     25 CAY          1.9240    -0.1810     1.9120 ca         1 GJQ      -0.103500
     26 H1          -0.8840     0.1430    -1.9290 ha         1 GJQ       0.148000
     27 H2          -2.9800     0.3520     2.5840 ha         1 GJQ       0.140000
     28 H3          -1.5160    -1.5680     1.9810 ha         1 GJQ       0.137000
     29 H5          -2.0650    -2.9420    -1.0240 hn         1 GJQ       0.506500
     30 H6          -1.4420    -3.7750    -2.3430 hn         1 GJQ       0.506500
     31 H8           1.6690    -4.6760    -2.5330 hn         1 GJQ       0.478500
     32 H9           2.7350    -4.8440    -1.2320 hn         1 GJQ       0.478500
     33 H11          0.6950    -2.4080     1.4620 h2         1 GJQ       0.073700
     34 H12          1.9640    -0.3510    -1.5010 ha         1 GJQ       0.132500
     35 H13          3.0830     1.8250    -1.2240 ha         1 GJQ       0.151500
     36 H14          2.7120     1.4390     3.0910 ha         1 GJQ       0.151500
     37 H15          1.5960    -0.7360     2.7890 ha         1 GJQ       0.132500
@<TRIPOS>BOND
     1     1     2 ar  
     2     1     8 ar  
     3     1    26 1   
     4     2     3 1   
     5     2     4 ar  
     6     4     5 1   
     7     4     6 ar  
     8     6     7 ar  
     9     6    27 1   
    10     7     8 ar  
    11     7    28 1   
    12     8     9 1   
    13     9    10 1   
    14     9    16 1   
    15    10    11 1   
    16    10    12 2   
    17    11    29 1   
    18    11    30 1   
    19    12    13 1   
    20    13    14 1   
    21    13    15 2   
    22    14    31 1   
    23    14    32 1   
    24    15    16 1   
    25    16    17 1   
    26    16    33 1   
    27    17    18 ar  
    28    17    25 ar  
    29    18    19 ar  
    30    18    34 1   
    31    19    20 ar  
    32    19    35 1   
    33    20    21 1   
    34    20    24 ar  
    35    21    22 1   
    36    21    23 1   
    37    24    25 ar  
    38    24    36 1   
    39    25    37 1   
@<TRIPOS>SUBSTRUCTURE
     1 GJQ         1 TEMP              0 ****  ****    0 ROOT
