@<TRIPOS>MOLECULE
GJR
   34    36     1     0     0
SMALL
abcg2


@<TRIPOS>ATOM
      1 N1          -0.2750   -22.6870   -11.5400 nb         1 GJR      -0.294000
      2 C8          -2.6760   -21.3220    -8.1260 cc         1 GJR       0.404700
      3 C5          -1.5370   -22.3250    -9.5870 ca         1 GJR      -0.106600
      4 C6          -0.8180   -23.1980   -10.4260 ca         1 GJR       0.466900
      5 N3          -1.0930   -20.4900   -11.1170 nb         1 GJR      -0.197000
      6 C4          -1.6250   -21.0090   -10.0090 ca         1 GJR       0.132500
      7 C2          -0.4480   -21.4060   -11.7940 ca         1 GJR       0.285000
      8 C13         -1.6010   -18.0250    -9.0240 ca         1 GJR       0.362300
      9 C15         -0.7890   -16.0120    -9.6840 ca         1 GJR       0.378900
     10 N7          -2.3600   -20.3730    -9.0590 na         1 GJR      -0.279300
     11 N9          -2.2040   -22.5010    -8.4040 nd         1 GJR      -0.543100
     12 N10         -0.6580   -24.4910   -10.1630 nv         1 GJR      -1.057900
     13 CL1          0.3020   -20.8490   -13.2590 cl         1 GJR      -0.137000
     14 N14         -1.7640   -16.9070    -9.7260 nb         1 GJR      -0.682000
     15 C16          0.3860   -16.1680    -8.9670 ca         1 GJR      -0.252000
     16 C17          0.5460   -17.3410    -8.2350 ca         1 GJR       0.181100
     17 C18         -0.4770   -18.2880    -8.2630 ca         1 GJR      -0.175000
     18 O19          1.6200   -17.6350    -7.4940 os         1 GJR      -0.317100
     19 C20          2.6760   -16.7010    -7.4300 c3         1 GJR       0.096600
     20 C21          3.7410   -17.2630    -6.5280 c3         1 GJR       0.185300
     21 F22          3.2490   -17.4800    -5.2780 f          1 GJR      -0.110500
     22 F23          4.1750   -18.4660    -6.9890 f          1 GJR      -0.110500
     23 H1          -3.2670   -21.0690    -7.2570 h5         1 GJR       0.068800
     24 H2          -3.4240   -18.8230    -8.2260 h1         1 GJR       0.083200
     25 H3          -3.3440   -18.7880    -9.9800 h1         1 GJR       0.083200
     26 H4          -0.9370   -15.1070   -10.2630 h4         1 GJR       0.021100
     27 H5          -0.1490   -25.0830   -10.7980 hn         1 GJR       0.511000
     28 H6          -1.0660   -24.9080    -9.3450 hn         1 GJR       0.511000
     29 H7           1.1320   -15.3870    -9.0020 ha         1 GJR       0.126000
     30 H8          -0.3810   -19.2070    -7.6990 ha         1 GJR       0.144000
     31 H9           3.1120   -16.5160    -8.4170 h1         1 GJR       0.059700
     32 H10          2.3440   -15.7400    -7.0230 h1         1 GJR       0.059700
     33 H11          4.5920   -16.5840    -6.4580 h2         1 GJR       0.064700
     34 C11         -2.7620   -18.9860    -9.0790 c3         1 GJR       0.034300
@<TRIPOS>BOND
     1     1     4 ar  
     2     1     7 ar  
     3     2    10 1   
     4     2    11 2   
     5     2    23 1   
     6     3     4 ar  
     7     3     6 ar  
     8     3    11 1   
     9     4    12 1   
    10     5     6 ar  
    11     5     7 ar  
    12     6    10 1   
    13     7    13 1   
    14     8    14 ar  
    15     8    17 ar  
    16     8    34 1   
    17     9    14 ar  
    18     9    15 ar  
    19     9    26 1   
    20    10    34 1   
    21    12    27 1   
    22    12    28 1   
    23    15    16 ar  
    24    15    29 1   
    25    16    17 ar  
    26    16    18 1   
    27    17    30 1   
    28    18    19 1   
    29    19    20 1   
    30    19    31 1   
    31    19    32 1   
    32    20    21 1   
    33    20    22 1   
    34    20    33 1   
    35    24    34 1   
    36    25    34 1   
@<TRIPOS>SUBSTRUCTURE
     1 GJR         1 TEMP              0 ****  ****    0 ROOT
