@<TRIPOS>MOLECULE
GJR
   34    36     1     0     0
SMALL
No Charge or Current Charge


@<TRIPOS>ATOM
      1 N1          -0.3220   -22.7920   -11.6560 nb         1 GJR      -0.294000
      2 C8          -2.5980   -21.3420    -8.0350 cc         1 GJR       0.404700
      3 C5          -1.4890   -22.3030    -9.6190 ca         1 GJR      -0.106600
      4 C6          -0.7730   -23.1850   -10.4550 ca         1 GJR       0.466900
      5 N3          -1.2680   -20.5940   -11.2670 nb         1 GJR      -0.197000
      6 C4          -1.7090   -21.0260   -10.0700 ca         1 GJR       0.132500
      7 C2          -0.5920   -21.5100   -12.0000 ca         1 GJR       0.285000
      8 C13         -1.6440   -18.0020    -9.0380 ca         1 GJR       0.362300
      9 C15         -0.7660   -15.9740    -9.7510 ca         1 GJR       0.378900
     10 N7          -2.4100   -20.4200    -9.0680 na         1 GJR      -0.279300
     11 N9          -2.0390   -22.5270    -8.3490 nd         1 GJR      -0.543100
     12 N10         -0.5060   -24.4700   -10.1040 nv         1 GJR      -1.057900
     13 Cl1         -0.0030   -20.9790   -13.5670 cl         1 GJR      -0.137000
     14 N14         -1.7700   -16.8780    -9.7820 nb         1 GJR      -0.682000
     15 C16          0.3930   -16.1480    -8.9850 ca         1 GJR      -0.252000
     16 C17          0.5230   -17.3130    -8.2100 ca         1 GJR       0.181100
     17 C18         -0.5140   -18.2490    -8.2380 ca         1 GJR      -0.175000
     18 O19          1.6250   -17.5730    -7.4230 os         1 GJR      -0.317100
     19 C20          2.7400   -16.6620    -7.3410 c3         1 GJR       0.096600
     20 C21          3.8040   -17.2460    -6.3840 c3         1 GJR       0.185300
     21 F22          3.2770   -17.4340    -5.1510 f          1 GJR      -0.110500
     22 F23          4.2310   -18.4500    -6.8320 f          1 GJR      -0.110500
     23 H1          -3.1210   -21.0960    -7.1190 h5         1 GJR       0.068800
     24 H2          -3.4860   -18.7900    -8.2800 h1         1 GJR       0.083200
     25 H3          -3.3630   -18.8230   -10.0420 h1         1 GJR       0.083200
     26 H4          -0.8990   -15.0820   -10.3620 h4         1 GJR       0.021100
     27 H5          -0.2640   -25.1260   -10.8420 hn         1 GJR       0.511000
     28 H6          -1.0200   -24.8470    -9.3110 hn         1 GJR       0.511000
     29 H7           1.1590   -15.3810    -9.0090 ha         1 GJR       0.126000
     30 H8          -0.4410   -19.1570    -7.6480 ha         1 GJR       0.144000
     31 H9           3.1940   -16.5130    -8.3290 h1         1 GJR       0.059700
     32 H10          2.4160   -15.6850    -6.9600 h1         1 GJR       0.059700
     33 H11          4.6600   -16.5670    -6.3080 h2         1 GJR       0.064700
     34 C11         -2.8030   -18.9950    -9.1140 c3         1 GJR       0.034300
@<TRIPOS>BOND
     1     1     4 ar  
     2     1     7 ar  
     3     2    10 1   
     4     2    11 2   
     5     2    23 1   
     6     3     4 ar  
     7     3     6 ar  
     8     3    11 1   
     9     4    12 1   
    10     5     6 ar  
    11     5     7 ar  
    12     6    10 1   
    13     7    13 1   
    14     8    14 ar  
    15     8    17 ar  
    16     8    34 1   
    17     9    14 ar  
    18     9    15 ar  
    19     9    26 1   
    20    10    34 1   
    21    12    27 1   
    22    12    28 1   
    23    15    16 ar  
    24    15    29 1   
    25    16    17 ar  
    26    16    18 1   
    27    17    30 1   
    28    18    19 1   
    29    19    20 1   
    30    19    31 1   
    31    19    32 1   
    32    20    21 1   
    33    20    22 1   
    34    20    33 1   
    35    24    34 1   
    36    25    34 1   
@<TRIPOS>SUBSTRUCTURE
     1 GJR         1 TEMP              0 ****  ****    0 ROOT
