@<TRIPOS>MOLECULE
GJS
   17    17     1     0     0
SMALL
No Charge or Current Charge


@<TRIPOS>ATOM
      1 C10         -0.0880    -0.6090    -0.0580 ca         1 GJS      -0.047600
      2 C02          1.7470     1.1310     0.2850 c          1 GJS       0.718600
      3 C04          0.3000     0.7500     0.0900 ca         1 GJS      -0.136600
      4 C05         -0.6880     1.7600     0.0800 ca         1 GJS      -0.082000
      5 C06         -2.0460     1.4310    -0.0600 ca         1 GJS      -0.266000
      6 C07         -2.4280     0.0920    -0.1910 ca         1 GJS       0.063100
      7 C09         -1.4610    -0.9220    -0.1910 ca         1 GJS      -0.157000
      8 C11          0.9390    -1.7250    -0.1050 c          1 GJS       0.753600
      9 O01          2.3520     0.6380     1.2270 o          1 GJS      -0.735500
     10 O03          2.2160     2.0050    -0.4320 o          1 GJS      -0.735500
     11 O08         -3.7440    -0.2190    -0.3250 oh         1 GJS      -0.572100
     12 O12          0.7880    -2.6840     0.6440 o          1 GJS      -0.739500
     13 O13          1.8030    -1.6840    -0.9710 o          1 GJS      -0.739500
     14 H1          -0.3960     2.8020     0.1940 ha         1 GJS       0.099000
     15 H2          -2.7930     2.2210    -0.0610 ha         1 GJS       0.056000
     16 H3          -1.7680    -1.9580    -0.3060 ha         1 GJS       0.101000
     17 H5          -4.2550     0.6190    -0.3040 ho         1 GJS       0.420000
@<TRIPOS>BOND
     1     1     3 ar  
     2     1     7 ar  
     3     1     8 1   
     4     2     3 1   
     5     2     9 1   
     6     2    10 1   
     7     3     4 ar  
     8     4     5 ar  
     9     4    14 1   
    10     5     6 ar  
    11     5    15 1   
    12     6     7 ar  
    13     6    11 1   
    14     7    16 1   
    15     8    12 1   
    16     8    13 1   
    17    11    17 1   
@<TRIPOS>SUBSTRUCTURE
     1 GJS         1 TEMP              0 ****  ****    0 ROOT
