@<TRIPOS>MOLECULE
GJS
   17    17     1     0     0
SMALL
abcg2


@<TRIPOS>ATOM
      1 C10         -0.0860    -0.5770    -0.0180 ca         1 GJS      -0.047600
      2 C02          1.7540     1.1660     0.3180 c          1 GJS       0.718600
      3 C04          0.3110     0.7620     0.0860 ca         1 GJS      -0.136600
      4 C05         -0.6700     1.7480     0.0350 ca         1 GJS      -0.082000
      5 C06         -2.0170     1.4450    -0.0980 ca         1 GJS      -0.266000
      6 C07         -2.4040     0.1120    -0.1920 ca         1 GJS       0.063100
      7 C09         -1.4370    -0.8870    -0.1470 ca         1 GJS      -0.157000
      8 C11          0.8880    -1.7410    -0.0920 c          1 GJS       0.753600
      9 O01          2.4970     0.3180     0.8480 o          1 GJS      -0.735500
     10 O03          2.0740     2.3290    -0.0110 o          1 GJS      -0.735500
     11 O08         -3.6950    -0.2640    -0.3270 oh         1 GJS      -0.572100
     12 O12          0.8700    -2.5470     0.8580 o          1 GJS      -0.739500
     13 O13          1.5410    -1.8300    -1.1470 o          1 GJS      -0.739500
     14 H1          -0.3740     2.7860     0.1120 ha         1 GJS       0.099000
     15 H2          -2.7560     2.2380    -0.1250 ha         1 GJS       0.056000
     16 H3          -1.7520    -1.9220    -0.2290 ha         1 GJS       0.101000
     17 H5          -4.2660     0.5120    -0.3560 ho         1 GJS       0.420000
@<TRIPOS>BOND
     1     1     3 ar  
     2     1     7 ar  
     3     1     8 1   
     4     2     3 1   
     5     2     9 1   
     6     2    10 1   
     7     3     4 ar  
     8     4     5 ar  
     9     4    14 1   
    10     5     6 ar  
    11     5    15 1   
    12     6     7 ar  
    13     6    11 1   
    14     7    16 1   
    15     8    12 1   
    16     8    13 1   
    17    11    17 1   
@<TRIPOS>SUBSTRUCTURE
     1 GJS         1 TEMP              0 ****  ****    0 ROOT
