@<TRIPOS>MOLECULE
GJT
   51    52     1     0     0
SMALL
bcc


@<TRIPOS>ATOM
      1 N1          -0.2330    -1.6920    -0.3900 ns         1 GJT      -0.566900
      2 N3          -4.1290    -0.6810    -1.1980 nc         1 GJT      -0.384000
      3 C4           4.6150    -0.4440     1.0930 c3         1 GJT      -0.084900
      4 C5           4.4470     0.9600     1.6530 c3         1 GJT      -0.087100
      5 C6           1.4840     0.0550    -0.5340 c6         1 GJT       0.182300
      6 C7           1.6960     1.5410    -0.4920 c2         1 GJT      -0.248200
      7 C8           0.7260     2.4510    -0.4240 ce         1 GJT      -0.149400
      8 C10         -0.9180     0.6200    -0.8350 c6         1 GJT       0.035000
      9 C15         -4.1770    -0.4600     0.1320 cc         1 GJT       0.231600
     10 C17          1.0570     3.9360    -0.3440 c          1 GJT       0.921800
     11 C1           3.1600    -2.5880    -1.8260 c3         1 GJT      -0.087100
     12 C2           3.9790    -2.1750    -0.6120 c3         1 GJT      -0.084900
     13 O1           2.3540    -0.6350     0.3330 os         1 GJT      -0.409600
     14 C9          -0.7240     2.0630    -0.3900 c6         1 GJT      -0.042200
     15 C11          0.0620    -0.3120    -0.1170 c6         1 GJT       0.091700
     16 C12         -0.4200    -2.6290     0.5610 c          1 GJT       0.678100
     17 O2          -0.4070    -2.3830     1.7570 o          1 GJT      -0.604100
     18 N2          -2.2830     0.1730    -0.6350 na         1 GJT       0.123400
     19 C14         -2.9830     0.0940     0.5120 cd         1 GJT      -0.186600
     20 O3          -5.0960    -0.3890     2.2820 oh         1 GJT      -0.592800
     21 N4          -2.9820    -0.3020    -1.6480 nd         1 GJT      -0.224800
     22 O4           2.2510     4.2690    -0.4640 o          1 GJT      -0.820800
     23 O5           0.0860     4.6950    -0.1500 o          1 GJT      -0.820800
     24 H1          -0.2570    -1.9810    -1.3560 hn         1 GJT       0.307500
     25 H2           5.6490    -0.5860     0.7670 hc         1 GJT       0.033950
     26 H3           4.4440    -1.1820     1.8830 hc         1 GJT       0.033950
     27 H4           5.1580     1.1410     2.4600 hc         1 GJT       0.035033
     28 H5           4.6200     1.7190     0.8870 hc         1 GJT       0.035033
     29 H6           3.4450     1.1170     2.0520 hc         1 GJT       0.035033
     30 H7           1.6380    -0.2860    -1.5700 h1         1 GJT       0.019700
     31 H9           2.7220     1.8890    -0.5320 ha         1 GJT       0.154000
     32 H11         -0.7530     0.5520    -1.9140 h1         1 GJT       0.082700
     33 H12          0.2440    -4.6310     0.2540 hc         1 GJT       0.053033
     34 H13         -1.4780    -4.4840     0.5640 hc         1 GJT       0.053033
     35 H14         -0.8290    -4.0730    -1.0300 hc         1 GJT       0.053033
     36 H15          3.2760    -1.8810    -2.6500 hc         1 GJT       0.035033
     37 H16          3.4790    -3.5660    -2.1880 hc         1 GJT       0.035033
     38 H17          2.0990    -2.6630    -1.5910 hc         1 GJT       0.035033
     39 H18          3.8180    -2.8910     0.2000 hc         1 GJT       0.033950
     40 H19          5.0420    -2.2320    -0.8620 hc         1 GJT       0.033950
     41 H20          3.9150    -0.0480    -0.8950 h1         1 GJT       0.044700
     42 H21         -1.1180     2.2060     0.6210 hc         1 GJT       0.073200
     43 H22         -1.3080     2.7200    -1.0370 hc         1 GJT       0.073200
     44 H23         -0.0280    -0.1620     0.9620 h1         1 GJT       0.108700
     45 H24         -2.5980     0.4170     1.4640 h4         1 GJT       0.205000
     46 H25         -6.2500    -0.2900     0.5510 h1         1 GJT       0.025700
     47 H26         -5.5640    -1.8700     0.8970 h1         1 GJT       0.025700
     48 H27         -5.8280    -0.6700     2.8390 ho         1 GJT       0.399000
     49 C3           3.7050    -0.7670    -0.0890 c3         1 GJT       0.155100
     50 C13         -0.6390    -4.0280     0.0410 c3         1 GJT      -0.180100
     51 C16         -5.3670    -0.7930     0.9650 c3         1 GJT       0.130100
@<TRIPOS>BOND
     1     1    15 1   
     2     1    16 1   
     3     1    24 1   
     4     2     9 1   
     5     2    21 2   
     6     3     4 1   
     7     3    25 1   
     8     3    26 1   
     9     3    49 1   
    10     4    27 1   
    11     4    28 1   
    12     4    29 1   
    13     5     6 1   
    14     5    13 1   
    15     5    15 1   
    16     5    30 1   
    17     6     7 2   
    18     6    31 1   
    19     7    10 1   
    20     7    14 1   
    21     8    14 1   
    22     8    15 1   
    23     8    18 1   
    24     8    32 1   
    25     9    19 2   
    26     9    51 1   
    27    10    22 1   
    28    10    23 1   
    29    11    12 1   
    30    11    36 1   
    31    11    37 1   
    32    11    38 1   
    33    12    39 1   
    34    12    40 1   
    35    12    49 1   
    36    13    49 1   
    37    14    42 1   
    38    14    43 1   
    39    15    44 1   
    40    16    17 2   
    41    16    50 1   
    42    18    19 1   
    43    18    21 1   
    44    19    45 1   
    45    20    48 1   
    46    20    51 1   
    47    33    50 1   
    48    34    50 1   
    49    35    50 1   
    50    41    49 1   
    51    46    51 1   
    52    47    51 1   
@<TRIPOS>SUBSTRUCTURE
     1 GJT         1 TEMP              0 ****  ****    0 ROOT
