@<TRIPOS>MOLECULE
GJT
   51    52     1     0     0
SMALL
No Charge or Current Charge


@<TRIPOS>ATOM
      1 N1          -0.1230    -1.8390    -0.3490 ns         1 GJT      -0.499900
      2 N3          -4.3000    -0.6770    -1.0940 nc         1 GJT      -0.384000
      3 C4           4.7650    -0.4690     1.1630 c3         1 GJT      -0.084900
      4 C5           4.6310     0.9410     1.7770 c3         1 GJT      -0.087100
      5 C6           1.5330     0.0250    -0.4980 c6         1 GJT       0.205500
      6 C7           1.7230     1.5380    -0.4680 c2         1 GJT      -0.298200
      7 C8           0.7110     2.4500    -0.4440 ce         1 GJT      -0.149400
      8 C10         -0.9330     0.4970    -0.8210 c6         1 GJT       0.064300
      9 C15         -4.2260    -0.4720     0.2590 cc         1 GJT       0.166300
     10 C17          0.9600     3.9500    -0.4430 c          1 GJT       0.711200
     11 C1           3.3540    -2.3980    -2.0170 c3         1 GJT      -0.087100
     12 C2           4.0990    -2.1130    -0.6960 c3         1 GJT      -0.084900
     13 O1           2.4970    -0.6070     0.3710 os         1 GJT      -0.456000
     14 C9          -0.7570     1.9810    -0.4050 c6         1 GJT      -0.042200
     15 C11          0.0960    -0.3990    -0.0800 c6         1 GJT       0.091700
     16 C12         -0.7420    -2.7300     0.4950 c          1 GJT       0.611100
     17 O2          -1.1670    -2.4120     1.5960 o          1 GJT      -0.604100
     18 N2          -2.3320     0.0560    -0.6020 na         1 GJT       0.144800
     19 C14         -2.9950    -0.0050     0.6030 cd         1 GJT      -0.154000
     20 O3          -5.7420     0.3730     1.9850 oh         1 GJT      -0.655000
     21 N4          -3.1470    -0.3550    -1.6260 nd         1 GJT      -0.224800
     22 O4           2.1130     4.3530    -0.4880 o          1 GJT      -0.715500
     23 O5           0.0010     4.7070    -0.3910 o          1 GJT      -0.715500
     24 H1           0.2040    -2.2160    -1.2300 hn         1 GJT       0.307500
     25 H2           5.8130    -0.6230     0.8760 hc         1 GJT       0.033950
     26 H3           4.5360    -1.2190     1.9300 hc         1 GJT       0.033950
     27 H4           5.3120     1.0510     2.6290 hc         1 GJT       0.035033
     28 H5           4.8800     1.7110     1.0370 hc         1 GJT       0.035033
     29 H6           3.6090     1.1190     2.1330 hc         1 GJT       0.035033
     30 H7           1.7030    -0.3130    -1.5290 h1         1 GJT       0.019700
     31 H9           2.7580     1.8780    -0.4900 ha         1 GJT       0.204000
     32 H11         -0.7290     0.4210    -1.8990 h1         1 GJT       0.082700
     33 H12          0.1480    -4.5020    -0.3280 hc         1 GJT       0.053033
     34 H13         -1.3410    -4.8340     0.6530 hc         1 GJT       0.053033
     35 H14         -1.3680    -4.1210    -1.0140 hc         1 GJT       0.053033
     36 H15          3.5330    -1.5980    -2.7460 hc         1 GJT       0.035033
     37 H16          3.7030    -3.3410    -2.4520 hc         1 GJT       0.035033
     38 H17          2.2760    -2.4900    -1.8490 hc         1 GJT       0.035033
     39 H18          3.8310    -2.8840     0.0380 hc         1 GJT       0.033950
     40 H19          5.1730    -2.2300    -0.8870 hc         1 GJT       0.033950
     41 H20          4.1020     0.0580    -0.8280 h1         1 GJT       0.044700
     42 H21         -1.1420     2.1370     0.6120 hc         1 GJT       0.073200
     43 H22         -1.3740     2.6060    -1.0660 hc         1 GJT       0.073200
     44 H23         -0.0030    -0.2220     1.0010 h1         1 GJT       0.108700
     45 H24         -2.5650     0.2590     1.5600 h4         1 GJT       0.187000
     46 H25         -6.2590    -1.0700     0.5700 h1         1 GJT       0.025700
     47 H26         -5.1290    -1.6140     1.8170 h1         1 GJT       0.025700
     48 H27         -6.5090     0.1070     2.5390 ho         1 GJT       0.438000
     49 C3           3.8660    -0.7070    -0.0760 c3         1 GJT       0.178300
     50 C13         -0.8510    -4.1490    -0.0480 c3         1 GJT      -0.180100
     51 C16         -5.3950    -0.7640     1.1760 c3         1 GJT       0.153300
@<TRIPOS>BOND
     1     1    15 1   
     2     1    16 1   
     3     1    24 1   
     4     2     9 1   
     5     2    21 2   
     6     3     4 1   
     7     3    25 1   
     8     3    26 1   
     9     3    49 1   
    10     4    27 1   
    11     4    28 1   
    12     4    29 1   
    13     5     6 1   
    14     5    13 1   
    15     5    15 1   
    16     5    30 1   
    17     6     7 2   
    18     6    31 1   
    19     7    10 1   
    20     7    14 1   
    21     8    14 1   
    22     8    15 1   
    23     8    18 1   
    24     8    32 1   
    25     9    19 2   
    26     9    51 1   
    27    10    22 1   
    28    10    23 1   
    29    11    12 1   
    30    11    36 1   
    31    11    37 1   
    32    11    38 1   
    33    12    39 1   
    34    12    40 1   
    35    12    49 1   
    36    13    49 1   
    37    14    42 1   
    38    14    43 1   
    39    15    44 1   
    40    16    17 2   
    41    16    50 1   
    42    18    19 1   
    43    18    21 1   
    44    19    45 1   
    45    20    48 1   
    46    20    51 1   
    47    33    50 1   
    48    34    50 1   
    49    35    50 1   
    50    41    49 1   
    51    46    51 1   
    52    47    51 1   
@<TRIPOS>SUBSTRUCTURE
     1 GJT         1 TEMP              0 ****  ****    0 ROOT
