@<TRIPOS>MOLECULE
GJU
   37    39     1     0     0
SMALL
No Charge or Current Charge


@<TRIPOS>ATOM
      1 N1           0.5440   154.4170   -11.8940 nb         1 GJU      -0.295000
      2 C2           0.9170   153.1730   -12.2780 ca         1 GJU       0.285000
      3 N3           1.4590   152.2080   -11.4990 nb         1 GJU      -0.200000
      4 C4           1.6390   152.5420   -10.2060 ca         1 GJU       0.130500
      5 C5           1.2950   153.7740    -9.7090 ca         1 GJU      -0.104600
      6 C6           0.7340   154.7130   -10.6000 ca         1 GJU       0.466900
      7 N7           2.1450   151.8600    -9.1360 na         1 GJU      -0.277300
      8 C8           2.0900   152.6980    -8.0160 cc         1 GJU       0.405700
      9 N9           1.5710   153.8980    -8.3410 nd         1 GJU      -0.547100
     10 N10          0.3620   155.9600   -10.2070 nv         1 GJU      -1.057900
     11 Cl1          0.6710   152.7680   -13.9690 cl         1 GJU      -0.137000
     12 C12          2.5750   150.4430    -9.2310 c3         1 GJU       0.047000
     13 C13          1.3960   149.4670    -9.3240 ca         1 GJU       0.363300
     14 N14          1.4760   148.5110   -10.2800 nb         1 GJU      -0.684000
     15 C15          0.4550   147.6350   -10.3970 ca         1 GJU       0.378900
     16 C16         -0.6780   147.6720    -9.5740 ca         1 GJU      -0.254000
     17 C17         -0.7610   148.6610    -8.5800 ca         1 GJU       0.181100
     18 C18          0.2940   149.5690    -8.4570 ca         1 GJU      -0.176000
     19 O19         -1.8340   148.7760    -7.7230 os         1 GJU      -0.317100
     20 C20         -2.9640   147.8830    -7.7840 c3         1 GJU       0.096600
     21 C21         -3.9870   148.2800    -6.6960 c3         1 GJU       0.185300
     22 F22         -3.4190   148.2140    -5.4680 f          1 GJU      -0.110500
     23 F23         -4.4030   149.5550    -6.8830 f          1 GJU      -0.110500
     24 C24          3.5500   150.0380    -8.1020 c3         1 GJU      -0.104100
     25 H1           2.4220   152.3890    -7.0320 h5         1 GJU       0.069800
     26 H2           0.2540   156.6720   -10.9250 hn         1 GJU       0.511000
     27 H3           0.6950   156.2750    -9.2990 hn         1 GJU       0.511000
     28 H4           3.1370   150.3540   -10.1710 h1         1 GJU       0.106700
     29 H5           0.5500   146.8800   -11.1760 h4         1 GJU       0.021100
     30 H6          -1.4610   146.9360    -9.7250 ha         1 GJU       0.126000
     31 H7           0.2580   150.3420    -7.6970 ha         1 GJU       0.145000
     32 H8          -3.4500   147.9380    -8.7670 h1         1 GJU       0.059200
     33 H9          -2.6480   146.8450    -7.6150 h1         1 GJU       0.059200
     34 H10         -4.8540   147.6120    -6.7270 h2         1 GJU       0.064700
     35 H11          4.4120   150.7160    -8.0710 hc         1 GJU       0.054367
     36 H12          3.0540   150.0600    -7.1240 hc         1 GJU       0.054367
     37 H13          3.9250   149.0210    -8.2680 hc         1 GJU       0.054367
@<TRIPOS>BOND
     1     1     2 ar  
     2     1     6 ar  
     3     2     3 ar  
     4     2    11 1   
     5     3     4 ar  
     6     4     5 ar  
     7     4     7 1   
     8     5     6 ar  
     9     5     9 1   
    10     6    10 1   
    11     7     8 1   
    12     7    12 1   
    13     8     9 2   
    14     8    25 1   
    15    10    26 1   
    16    10    27 1   
    17    12    13 1   
    18    12    24 1   
    19    12    28 1   
    20    13    14 ar  
    21    13    18 ar  
    22    14    15 ar  
    23    15    16 ar  
    24    15    29 1   
    25    16    17 ar  
    26    16    30 1   
    27    17    18 ar  
    28    17    19 1   
    29    18    31 1   
    30    19    20 1   
    31    20    21 1   
    32    20    32 1   
    33    20    33 1   
    34    21    22 1   
    35    21    23 1   
    36    21    34 1   
    37    24    35 1   
    38    24    36 1   
    39    24    37 1   
@<TRIPOS>SUBSTRUCTURE
     1 GJU         1 TEMP              0 ****  ****    0 ROOT
