@<TRIPOS>MOLECULE
GJU
   37    39     1     0     0
SMALL
bcc


@<TRIPOS>ATOM
      1 N1           0.2580   154.2560   -11.6080 nb         1 GJU      -0.821000
      2 C2           0.5620   153.0310   -11.9850 ca         1 GJU       0.811000
      3 N3           1.1800   152.0770   -11.3360 nb         1 GJU      -0.726000
      4 C4           1.5300   152.4840   -10.1150 ca         1 GJU       0.458800
      5 C5           1.2930   153.7310    -9.5610 ca         1 GJU      -0.235200
      6 C6           0.6130   154.6540   -10.3780 ca         1 GJU       0.795200
      7 N7           2.1920   151.7780    -9.1590 na         1 GJU      -0.248000
      8 C8           2.3190   152.6220    -8.0890 cc         1 GJU       0.405700
      9 N9           1.7960   153.7970    -8.2900 nd         1 GJU      -0.547100
     10 N10          0.3090   155.8870    -9.9850 nv         1 GJU      -0.947500
     11 CL1          0.0630   152.6250   -13.5980 cl         1 GJU      -0.137000
     12 C12          2.6230   150.3970    -9.3060 c3         1 GJU       0.017700
     13 C13          1.4420   149.4500    -9.3510 ca         1 GJU       0.428600
     14 N14          1.6310   148.3590   -10.0900 nb         1 GJU      -0.684000
     15 C15          0.6550   147.4660   -10.1220 ca         1 GJU       0.444200
     16 C16         -0.5470   147.5940    -9.4430 ca         1 GJU      -0.337300
     17 C17         -0.7340   148.7380    -8.6740 ca         1 GJU       0.181100
     18 C18          0.2880   149.6850    -8.6280 ca         1 GJU      -0.259300
     19 O19         -1.8330   149.0070    -7.9610 os         1 GJU      -0.293900
     20 C20         -2.8820   148.0640    -7.9460 c3         1 GJU       0.073400
     21 C21         -3.9690   148.5960    -7.0520 c3         1 GJU       0.427900
     22 F22         -3.4980   148.7960    -5.7910 f          1 GJU      -0.231800
     23 F23         -4.4080   149.8030    -7.5000 f          1 GJU      -0.231800
     24 C24          3.5990   149.9870    -8.2110 c3         1 GJU      -0.104100
     25 H1           2.8130   152.3180    -7.1800 h5         1 GJU       0.069800
     26 H2          -0.1650   156.5190   -10.6080 hn         1 GJU       0.455800
     27 H3           0.5730   156.2220    -9.0750 hn         1 GJU       0.455800
     28 H4           3.1350   150.3250   -10.2680 h1         1 GJU       0.106700
     29 H5           0.8250   146.5850   -10.7310 h4         1 GJU       0.021100
     30 H6          -1.2900   146.8150    -9.5350 ha         1 GJU       0.144000
     31 H7           0.1640   150.5810    -8.0320 ha         1 GJU       0.163000
     32 H8          -3.2970   147.9010    -8.9460 h1         1 GJU       0.059200
     33 H9          -2.5510   147.0950    -7.5580 h1         1 GJU       0.059200
     34 H10         -4.8140   147.9080    -7.0070 h2         1 GJU       0.064700
     35 H11          4.4710   150.6400    -8.1940 hc         1 GJU       0.054367
     36 H12          3.1320   149.9910    -7.2260 hc         1 GJU       0.054367
     37 H13          3.9430   148.9740    -8.4130 hc         1 GJU       0.054367
@<TRIPOS>BOND
     1     1     2 ar  
     2     1     6 ar  
     3     2     3 ar  
     4     2    11 1   
     5     3     4 ar  
     6     4     5 ar  
     7     4     7 1   
     8     5     6 ar  
     9     5     9 1   
    10     6    10 1   
    11     7     8 1   
    12     7    12 1   
    13     8     9 2   
    14     8    25 1   
    15    10    26 1   
    16    10    27 1   
    17    12    13 1   
    18    12    24 1   
    19    12    28 1   
    20    13    14 ar  
    21    13    18 ar  
    22    14    15 ar  
    23    15    16 ar  
    24    15    29 1   
    25    16    17 ar  
    26    16    30 1   
    27    17    18 ar  
    28    17    19 1   
    29    18    31 1   
    30    19    20 1   
    31    20    21 1   
    32    20    32 1   
    33    20    33 1   
    34    21    22 1   
    35    21    23 1   
    36    21    34 1   
    37    24    35 1   
    38    24    36 1   
    39    24    37 1   
@<TRIPOS>SUBSTRUCTURE
     1 GJU         1 TEMP              0 ****  ****    0 ROOT
