@<TRIPOS>MOLECULE
GJV
   45    47     1     0     0
SMALL
abcg2


@<TRIPOS>ATOM
      1 N1         -27.9710     9.8190   -20.6070 nb         1 GJV      -0.286000
      2 C2         -27.3940    10.7620   -19.8550 ca         1 GJV       0.192900
      3 N3         -26.3260    10.6500   -19.0660 nb         1 GJV      -0.220000
      4 C4         -25.8180     9.4130   -19.0880 ca         1 GJV       0.156500
      5 C5         -26.3060     8.3370   -19.8260 ca         1 GJV      -0.106600
      6 C6         -27.4480     8.5770   -20.6140 ca         1 GJV       0.451900
      7 N6         -28.0380     7.6250   -21.3530 nv         1 GJV      -1.059900
      8 N7         -25.5250     7.2120   -19.6180 nc         1 GJV      -0.540100
      9 C8         -24.6010     7.6010   -18.7770 cd         1 GJV       0.389700
     10 N9         -24.7230     8.9240   -18.4090 na         1 GJV      -0.302300
     11 N10        -18.2050     4.1000   -17.4010 nv         1 GJV      -1.030500
     12 N11        -19.9350     3.3860   -16.0570 nv         1 GJV      -0.609300
     13 C1         -23.8560     9.6740   -17.5270 c5         1 GJV       0.318300
     14 C10        -23.7090     9.0710   -16.1290 c5         1 GJV       0.088300
     15 O2         -24.7550     9.5320   -15.2970 oh         1 GJV      -0.688000
     16 C3         -22.3200     9.5700   -15.7150 c5         1 GJV       0.112300
     17 O3         -22.3940    10.9180   -15.2660 oh         1 GJV      -0.700000
     18 C11        -21.5520     9.5200   -17.0310 c5         1 GJV       0.165300
     19 O4         -22.5500     9.7230   -18.0700 os         1 GJV      -0.448000
     20 C12        -20.8140     8.2130   -17.2840 c3         1 GJV      -0.098400
     21 C13        -19.5360     8.0890   -16.4560 c3         1 GJV      -0.096400
     22 C7         -18.7590     6.8110   -16.7370 c3         1 GJV       0.065600
     23 N8         -19.5060     5.6420   -16.2730 nu         1 GJV      -0.472800
     24 C9         -19.2140     4.3820   -16.5800 cz         1 GJV       0.929600
     25 H2         -27.8590    11.7410   -19.8940 h5         1 GJV       0.057100
     26 H1N6       -28.8050     7.8680   -21.9580 hn         1 GJV       0.510500
     27 H2N6       -27.6240     6.7120   -21.4370 hn         1 GJV       0.510500
     28 H8         -23.8010     6.9850   -18.3970 h5         1 GJV       0.044800
     29 H10        -18.0130     3.1480   -17.6670 hn         1 GJV       0.380000
     30 H20        -17.5900     4.8160   -17.7470 hn         1 GJV       0.380000
     31 H11        -20.7760     3.5790   -15.5390 hn         1 GJV       0.380000
     32 H21        -19.7540     2.4320   -16.3200 hn         1 GJV       0.380000
     33 H1         -24.2900    10.6730   -17.4560 h2         1 GJV       0.135700
     34 H5         -23.7060     7.9810   -16.1850 h1         1 GJV       0.041700
     35 HO2        -24.8860     8.9020   -14.5770 ho         1 GJV       0.518000
     36 H3         -21.8690     8.9340   -14.9490 h1         1 GJV       0.041700
     37 HO3        -23.1980    10.9930   -14.7310 ho         1 GJV       0.533000
     38 H4         -20.8560    10.3600   -17.0840 h1         1 GJV       0.103700
     39 H15        -21.4850     7.3720   -17.0880 hc         1 GJV       0.053200
     40 H25        -20.5590     8.1750   -18.3460 hc         1 GJV       0.053200
     41 H16        -19.7580     8.1430   -15.3870 hc         1 GJV       0.077700
     42 H26        -18.8750     8.9300   -16.6800 hc         1 GJV       0.077700
     43 H17        -17.7860     6.8470   -16.2400 h1         1 GJV       0.070200
     44 H27        -18.5900     6.7170   -17.8120 h1         1 GJV       0.070200
     45 HN8        -20.2160     5.7930   -15.5710 hn         1 GJV       0.369000
@<TRIPOS>BOND
     1     1     2 ar  
     2     1     6 ar  
     3     2     3 ar  
     4     2    25 1   
     5     3     4 ar  
     6     4     5 ar  
     7     4    10 1   
     8     5     6 ar  
     9     5     8 1   
    10     6     7 1   
    11     7    26 1   
    12     7    27 1   
    13     8     9 2   
    14     9    10 1   
    15     9    28 1   
    16    10    13 1   
    17    11    24 2   
    18    11    29 1   
    19    11    30 1   
    20    12    24 1   
    21    12    31 1   
    22    12    32 1   
    23    13    14 1   
    24    13    19 1   
    25    13    33 1   
    26    14    15 1   
    27    14    16 1   
    28    14    34 1   
    29    15    35 1   
    30    16    17 1   
    31    16    18 1   
    32    16    36 1   
    33    17    37 1   
    34    18    19 1   
    35    18    20 1   
    36    18    38 1   
    37    20    21 1   
    38    20    39 1   
    39    20    40 1   
    40    21    22 1   
    41    21    41 1   
    42    21    42 1   
    43    22    23 1   
    44    22    43 1   
    45    22    44 1   
    46    23    24 1   
    47    23    45 1   
@<TRIPOS>SUBSTRUCTURE
     1 GJV         1 TEMP              0 ****  ****    0 ROOT
