@<TRIPOS>MOLECULE
GJV
   45    47     1     0     0
SMALL
No Charge or Current Charge


@<TRIPOS>ATOM
      1 N1         -27.3210     7.1630   -18.9680 nb         1 GJV      -0.286000
      2 C2         -27.1730     8.0090   -17.9210 ca         1 GJV       0.192900
      3 N3         -26.1140     8.8170   -17.6770 nb         1 GJV      -0.220000
      4 C4         -25.1110     8.7630   -18.5770 ca         1 GJV       0.156500
      5 C5         -25.1630     7.9410   -19.6750 ca         1 GJV      -0.106600
      6 C6         -26.3060     7.1320   -19.8450 ca         1 GJV       0.451900
      7 N6         -26.4530     6.2890   -20.9020 nv         1 GJV      -1.059900
      8 N7         -24.0360     8.0530   -20.4790 nc         1 GJV      -0.540100
      9 C8         -23.3120     8.9730   -19.8160 cd         1 GJV       0.389700
     10 N9         -23.9180     9.4370   -18.6320 na         1 GJV      -0.302300
     11 N10        -19.7510     3.8120   -17.7060 nv         1 GJV      -1.030500
     12 N11        -21.8210     3.7060   -16.9080 nv         1 GJV      -0.609300
     13 C1         -23.3990    10.4470   -17.7080 c5         1 GJV       0.318300
     14 C10        -23.4340    10.0600   -16.1750 c5         1 GJV       0.088300
     15 O2         -24.4170    10.7840   -15.4040 oh         1 GJV      -0.688000
     16 C3         -21.9960    10.4150   -15.6900 c5         1 GJV       0.112300
     17 O3         -21.9690    11.7790   -15.2600 oh         1 GJV      -0.700000
     18 C11        -21.1720    10.1650   -16.9920 c5         1 GJV       0.165300
     19 O4         -22.0130    10.7360   -18.0190 os         1 GJV      -0.448000
     20 C12        -20.8650     8.6760   -17.3300 c3         1 GJV      -0.098400
     21 C13        -19.8640     7.9940   -16.3620 c3         1 GJV      -0.096400
     22 C7         -19.4820     6.5560   -16.7780 c3         1 GJV       0.065600
     23 N8         -20.6230     5.6340   -16.6350 nu         1 GJV      -0.472800
     24 C9         -20.7380     4.4000   -17.0850 cz         1 GJV       0.929600
     25 H2         -27.9890     8.0440   -17.2010 h5         1 GJV       0.057100
     26 H1N6       -27.3910     5.9710   -21.1310 hn         1 GJV       0.510500
     27 H2N6       -25.8110     6.4120   -21.6810 hn         1 GJV       0.510500
     28 H8         -22.3460     9.3470   -20.1330 h5         1 GJV       0.044800
     29 H10        -19.8170     2.8600   -18.0400 hn         1 GJV       0.380000
     30 H20        -18.8690     4.2840   -17.8480 hn         1 GJV       0.380000
     31 H11        -22.6370     4.0860   -16.4560 hn         1 GJV       0.380000
     32 H21        -21.8980     2.7630   -17.2500 hn         1 GJV       0.380000
     33 H1         -24.0010    11.3490   -17.8820 h2         1 GJV       0.135700
     34 H5         -23.5980     8.9790   -16.0660 h1         1 GJV       0.041700
     35 HO2        -25.2930    10.3540   -15.5620 ho         1 GJV       0.518000
     36 H3         -21.6790     9.7570   -14.8700 h1         1 GJV       0.041700
     37 HO3        -22.9260    11.9520   -15.0570 ho         1 GJV       0.533000
     38 H4         -20.2210    10.7150   -16.9680 h1         1 GJV       0.103700
     39 H15        -21.7890     8.0860   -17.3540 hc         1 GJV       0.053200
     40 H25        -20.4480     8.6280   -18.3430 hc         1 GJV       0.053200
     41 H16        -20.2650     7.9830   -15.3410 hc         1 GJV       0.077700
     42 H26        -18.9460     8.5940   -16.3280 hc         1 GJV       0.077700
     43 H17        -18.6540     6.2120   -16.1420 h1         1 GJV       0.070200
     44 H27        -19.1230     6.5650   -17.8160 h1         1 GJV       0.070200
     45 HN8        -21.4020     5.9710   -16.0860 hn         1 GJV       0.369000
@<TRIPOS>BOND
     1     1     2 ar  
     2     1     6 ar  
     3     2     3 ar  
     4     2    25 1   
     5     3     4 ar  
     6     4     5 ar  
     7     4    10 1   
     8     5     6 ar  
     9     5     8 1   
    10     6     7 1   
    11     7    26 1   
    12     7    27 1   
    13     8     9 2   
    14     9    10 1   
    15     9    28 1   
    16    10    13 1   
    17    11    24 2   
    18    11    29 1   
    19    11    30 1   
    20    12    24 1   
    21    12    31 1   
    22    12    32 1   
    23    13    14 1   
    24    13    19 1   
    25    13    33 1   
    26    14    15 1   
    27    14    16 1   
    28    14    34 1   
    29    15    35 1   
    30    16    17 1   
    31    16    18 1   
    32    16    36 1   
    33    17    37 1   
    34    18    19 1   
    35    18    20 1   
    36    18    38 1   
    37    20    21 1   
    38    20    39 1   
    39    20    40 1   
    40    21    22 1   
    41    21    41 1   
    42    21    42 1   
    43    22    23 1   
    44    22    43 1   
    45    22    44 1   
    46    23    24 1   
    47    23    45 1   
@<TRIPOS>SUBSTRUCTURE
     1 GJV         1 TEMP              0 ****  ****    0 ROOT
