@<TRIPOS>MOLECULE
GJW
   37    40     1     0     0
SMALL
No Charge or Current Charge


@<TRIPOS>ATOM
      1 C2          -3.4260    -1.7330    -0.9820 cc         1 GJW      -0.164000
      2 C4          -3.5500     0.3740    -0.0370 cc         1 GJW      -0.259600
      3 C6          -1.3950    -0.6930     0.0510 ca         1 GJW      -0.043200
      4 C11          0.8340    -1.6770     0.1950 ca         1 GJW      -0.098000
      5 C12          1.3140    -0.5320     0.8590 ca         1 GJW      -0.053300
      6 N22          3.7060    -0.3060     0.1420 n3         1 GJW      -0.718600
      7 C23          5.1370    -0.2650     0.4980 c5         1 GJW       0.157300
      8 C26          3.5330     0.9180    -0.6670 c5         1 GJW       0.157300
      9 C1          -4.7080    -1.2480    -1.1040 cd         1 GJW      -0.188000
     10 N3          -2.7460    -0.7110    -0.3230 na         1 GJW       0.162200
     11 C5          -4.7880     0.0470    -0.5250 cd         1 GJW      -0.087000
     12 C7          -0.9100     0.4610     0.7190 ca         1 GJW       0.070600
     13 N8          -1.7940     1.5390     0.9800 ns         1 GJW      -0.398100
     14 C9          -3.1270     1.6020     0.6470 c          1 GJW       0.611600
     15 C10         -0.5110    -1.7620    -0.2080 ca         1 GJW      -0.097000
     16 C13          0.4340     0.5380     1.1180 ca         1 GJW      -0.144000
     17 O20         -3.8380     2.5620     0.9000 o          1 GJW      -0.536000
     18 C21          2.7770    -0.4520     1.2850 c3         1 GJW       0.215100
     19 C24          5.7910    -0.0170    -0.8870 c5         1 GJW      -0.079400
     20 C25          4.7130     0.8000    -1.6690 c5         1 GJW      -0.079400
     21 H2          -2.9780    -2.6660    -1.2930 h4         1 GJW       0.151000
     22 H11          1.5110    -2.5020    -0.0140 ha         1 GJW       0.137000
     23 H23          5.3530     0.5610     1.1920 h1         1 GJW       0.037200
     24 H23A         5.4860    -1.2000     0.9590 h1         1 GJW       0.037200
     25 H26          2.5610     0.9550    -1.1790 h1         1 GJW       0.037200
     26 H26A         3.6280     1.8220    -0.0480 h1         1 GJW       0.037200
     27 H1          -5.5330    -1.7760    -1.5730 ha         1 GJW       0.139000
     28 H5          -5.6770     0.6710    -0.4760 ha         1 GJW       0.150000
     29 HN8         -1.4180     2.3480     1.4570 hn         1 GJW       0.331500
     30 H10         -0.8490    -2.6590    -0.7190 ha         1 GJW       0.124000
     31 H13          0.7980     1.4270     1.6260 ha         1 GJW       0.120000
     32 H21          2.9040     0.3870     1.9820 h1         1 GJW       0.040700
     33 H21A         3.0210    -1.3670     1.8430 h1         1 GJW       0.040700
     34 H24          6.7420     0.5190    -0.7960 hc         1 GJW       0.047950
     35 H24A         6.0020    -0.9660    -1.3940 hc         1 GJW       0.047950
     36 H25          4.4050     0.2690    -2.5760 hc         1 GJW       0.047950
     37 H25A         5.0780     1.7860    -1.9790 hc         1 GJW       0.047950
@<TRIPOS>BOND
     1     1     9 2   
     2     1    10 1   
     3     1    21 1   
     4     2    10 1   
     5     2    11 2   
     6     2    14 1   
     7     3    10 1   
     8     3    12 ar  
     9     3    15 ar  
    10     4     5 ar  
    11     4    15 ar  
    12     4    22 1   
    13     5    16 ar  
    14     5    18 1   
    15     6     7 1   
    16     6     8 1   
    17     6    18 1   
    18     7    19 1   
    19     7    23 1   
    20     7    24 1   
    21     8    20 1   
    22     8    25 1   
    23     8    26 1   
    24     9    11 1   
    25     9    27 1   
    26    11    28 1   
    27    12    13 1   
    28    12    16 ar  
    29    13    14 1   
    30    13    29 1   
    31    14    17 2   
    32    15    30 1   
    33    16    31 1   
    34    18    32 1   
    35    18    33 1   
    36    19    20 1   
    37    19    34 1   
    38    19    35 1   
    39    20    36 1   
    40    20    37 1   
@<TRIPOS>SUBSTRUCTURE
     1 GJW         1 TEMP              0 ****  ****    0 ROOT
