@<TRIPOS>MOLECULE
GJW
   37    40     1     0     0
SMALL
abcg2


@<TRIPOS>ATOM
      1 C2          -3.3510    -1.6200    -1.0520 cc         1 GJW      -0.164000
      2 C4          -3.6250     0.2850     0.0680 cc         1 GJW      -0.259600
      3 C6          -1.3610    -0.5870     0.0230 ca         1 GJW      -0.043200
      4 C11          0.9020    -1.3910     0.0160 ca         1 GJW      -0.098000
      5 C12          1.3080    -0.3050     0.7930 ca         1 GJW      -0.053300
      6 N22          3.6600    -0.3080     0.1290 n3         1 GJW      -0.718600
      7 C23          5.0540    -0.3510     0.5320 c5         1 GJW       0.157300
      8 C26          3.5860     0.7720    -0.8390 c5         1 GJW       0.157300
      9 C1          -4.6830    -1.2800    -1.1290 cd         1 GJW      -0.188000
     10 N3          -2.7100    -0.6690    -0.3250 na         1 GJW       0.162200
     11 C5          -4.8600    -0.0760    -0.4220 cd         1 GJW      -0.087000
     12 C7          -0.9680     0.5080     0.7930 ca         1 GJW       0.070600
     13 N8          -1.8990     1.4580     1.1730 ns         1 GJW      -0.398100
     14 C9          -3.2270     1.4280     0.8610 c          1 GJW       0.611600
     15 C10         -0.4180    -1.5330    -0.3640 ca         1 GJW      -0.097000
     16 C13          0.3670     0.6370     1.1680 ca         1 GJW      -0.144000
     17 O20         -4.0030     2.2980     1.2270 o          1 GJW      -0.536000
     18 C21          2.7430    -0.1750     1.2320 c3         1 GJW       0.215100
     19 C24          5.8150    -0.1920    -0.7850 c5         1 GJW      -0.079400
     20 C25          4.8380     0.5790    -1.6980 c5         1 GJW      -0.079400
     21 H2          -2.8320    -2.4680    -1.4640 h4         1 GJW       0.151000
     22 H11          1.6300    -2.1280    -0.2970 ha         1 GJW       0.137000
     23 H23          5.3030     0.4760     1.2180 h1         1 GJW       0.037200
     24 H23A         5.2830    -1.2840     1.0520 h1         1 GJW       0.037200
     25 H26          2.6610     0.7260    -1.4160 h1         1 GJW       0.037200
     26 H26A         3.6110     1.7560    -0.3400 h1         1 GJW       0.037200
     27 H1          -5.4420    -1.8470    -1.6430 ha         1 GJW       0.139000
     28 H5          -5.7770     0.4720    -0.2810 ha         1 GJW       0.150000
     29 HN8         -1.5780     2.2430     1.7240 hn         1 GJW       0.331500
     30 H10         -0.7110    -2.3850    -0.9620 ha         1 GJW       0.124000
     31 H13          0.6660     1.4960     1.7600 ha         1 GJW       0.120000
     32 H21          2.8750     0.7820     1.7670 h1         1 GJW       0.040700
     33 H21A         2.9620    -0.9650     1.9570 h1         1 GJW       0.040700
     34 H24          6.7580     0.3340    -0.6390 hc         1 GJW       0.047950
     35 H24A         6.0530    -1.1670    -1.2120 hc         1 GJW       0.047950
     36 H25          4.6070     0.0000    -2.5930 hc         1 GJW       0.047950
     37 H25A         5.2410     1.5350    -2.0280 hc         1 GJW       0.047950
@<TRIPOS>BOND
     1     1     9 2   
     2     1    10 1   
     3     1    21 1   
     4     2    10 1   
     5     2    11 2   
     6     2    14 1   
     7     3    10 1   
     8     3    12 ar  
     9     3    15 ar  
    10     4     5 ar  
    11     4    15 ar  
    12     4    22 1   
    13     5    16 ar  
    14     5    18 1   
    15     6     7 1   
    16     6     8 1   
    17     6    18 1   
    18     7    19 1   
    19     7    23 1   
    20     7    24 1   
    21     8    20 1   
    22     8    25 1   
    23     8    26 1   
    24     9    11 1   
    25     9    27 1   
    26    11    28 1   
    27    12    13 1   
    28    12    16 ar  
    29    13    14 1   
    30    13    29 1   
    31    14    17 2   
    32    15    30 1   
    33    16    31 1   
    34    18    32 1   
    35    18    33 1   
    36    19    20 1   
    37    19    34 1   
    38    19    35 1   
    39    20    36 1   
    40    20    37 1   
@<TRIPOS>SUBSTRUCTURE
     1 GJW         1 TEMP              0 ****  ****    0 ROOT
