@<TRIPOS>MOLECULE
GJY
   57    56     1     0     0
SMALL
No Charge or Current Charge


@<TRIPOS>ATOM
      1 O1          -8.0010     0.4840    -0.7550 o          1 GJY      -0.709000
      2 P1          -7.2750    -0.6360    -0.0770 p5         1 GJY       1.529800
      3 O2          -8.0700    -1.3810     1.1200 os         1 GJY      -0.617400
      4 CM          -9.2890    -2.0780     0.8230 c3         1 GJY       0.202900
      5 C1          -5.6870    -0.1760     0.7300 c3         1 GJY      -0.457400
      6 C2          -4.6050     0.4420    -0.1920 c3         1 GJY      -0.049400
      7 C3          -3.3110     0.7970     0.5700 c3         1 GJY      -0.071400
      8 C4          -2.2230     1.4130    -0.3380 c3         1 GJY      -0.076400
      9 C5          -0.9280     1.7680     0.4260 c3         1 GJY      -0.074400
     10 C6           0.1590     2.3840    -0.4810 c3         1 GJY      -0.075400
     11 C7           1.4540     2.7380     0.2820 c3         1 GJY      -0.072400
     12 C8           2.5440     3.3500    -0.6220 c3         1 GJY      -0.043200
     13 C9           3.8070     3.6840     0.1490 c2         1 GJY      -0.216200
     14 C10          4.8500     2.8700     0.3920 c2         1 GJY      -0.212200
     15 C11          5.0010     1.4160    -0.0150 c3         1 GJY      -0.011000
     16 C12          6.2380     1.2220    -0.8710 c2         1 GJY      -0.214200
     17 C13          7.0470     0.1480    -0.8930 c2         1 GJY      -0.212200
     18 C14          6.8970    -1.1250    -0.0830 c3         1 GJY      -0.012000
     19 C15          7.3570    -2.3300    -0.8830 c2         1 GJY      -0.214200
     20 C16          8.3290    -3.2040    -0.5640 c2         1 GJY      -0.216200
     21 C17          9.2250    -3.1750     0.6610 c3         1 GJY      -0.044200
     22 C18          8.6180    -3.9510     1.8440 c3         1 GJY      -0.086100
     23 F1          -6.8620    -1.8470    -1.0640 f          1 GJY      -0.335400
     24 H1         -10.0250    -1.4090     0.3570 h1         1 GJY       0.047700
     25 H2          -9.1070    -2.9220     0.1440 h1         1 GJY       0.047700
     26 H3          -9.7330    -2.4770     1.7430 h1         1 GJY       0.047700
     27 H4          -5.9590     0.5230     1.5290 hc         1 GJY       0.087700
     28 H5          -5.3180    -1.0960     1.1960 hc         1 GJY       0.087700
     29 H6          -4.3650    -0.2630    -0.9990 hc         1 GJY       0.051200
     30 H7          -5.0020     1.3490    -0.6680 hc         1 GJY       0.051200
     31 H8          -3.5490     1.5020     1.3760 hc         1 GJY       0.040200
     32 H9          -2.9130    -0.1090     1.0450 hc         1 GJY       0.040200
     33 H10         -1.9840     0.7070    -1.1430 hc         1 GJY       0.039700
     34 H11         -2.6210     2.3190    -0.8130 hc         1 GJY       0.039700
     35 H12         -1.1670     2.4740     1.2310 hc         1 GJY       0.037700
     36 H13         -0.5310     0.8620     0.9010 hc         1 GJY       0.037700
     37 H14          0.3980     1.6780    -1.2870 hc         1 GJY       0.037700
     38 H15         -0.2380     3.2890    -0.9560 hc         1 GJY       0.037700
     39 H16          1.2180     3.4450     1.0880 hc         1 GJY       0.039700
     40 H17          1.8510     1.8320     0.7580 hc         1 GJY       0.039700
     41 H18          2.7630     2.6560    -1.4420 hc         1 GJY       0.044700
     42 H19          2.1510     4.2580    -1.0970 hc         1 GJY       0.044700
     43 H20          3.8340     4.7120     0.5180 ha         1 GJY       0.165000
     44 H21          5.7020     3.2490     0.9610 ha         1 GJY       0.167000
     45 H22          5.0560     0.7980     0.8890 hc         1 GJY       0.049700
     46 H23          4.1210     1.0620    -0.5640 hc         1 GJY       0.049700
     47 H24          6.4600     2.0720    -1.5200 ha         1 GJY       0.169000
     48 H25          7.9160     0.1460    -1.5550 ha         1 GJY       0.169000
     49 H26          7.4590    -1.0290     0.8530 hc         1 GJY       0.050200
     50 H27          5.8510    -1.2750     0.2130 hc         1 GJY       0.050200
     51 H28          6.7930    -2.4740    -1.8070 ha         1 GJY       0.168000
     52 H29          8.5410    -4.0360    -1.2380 ha         1 GJY       0.165000
     53 H30         10.2030    -3.6070     0.4150 hc         1 GJY       0.043200
     54 H31          9.4240    -2.1450     0.9760 hc         1 GJY       0.043200
     55 H32          7.6560    -3.5150     2.1390 hc         1 GJY       0.032367
     56 H33          8.4540    -5.0010     1.5750 hc         1 GJY       0.032367
     57 H34          9.2910    -3.9180     2.7090 hc         1 GJY       0.032367
@<TRIPOS>BOND
     1     1     2 2   
     2     2     3 1   
     3     2     5 1   
     4     2    23 1   
     5     3     4 1   
     6     4    24 1   
     7     4    25 1   
     8     4    26 1   
     9     5     6 1   
    10     5    27 1   
    11     5    28 1   
    12     6     7 1   
    13     6    29 1   
    14     6    30 1   
    15     7     8 1   
    16     7    31 1   
    17     7    32 1   
    18     8     9 1   
    19     8    33 1   
    20     8    34 1   
    21     9    10 1   
    22     9    35 1   
    23     9    36 1   
    24    10    11 1   
    25    10    37 1   
    26    10    38 1   
    27    11    12 1   
    28    11    39 1   
    29    11    40 1   
    30    12    13 1   
    31    12    41 1   
    32    12    42 1   
    33    13    14 2   
    34    13    43 1   
    35    14    15 1   
    36    14    44 1   
    37    15    16 1   
    38    15    45 1   
    39    15    46 1   
    40    16    17 2   
    41    16    47 1   
    42    17    18 1   
    43    17    48 1   
    44    18    19 1   
    45    18    49 1   
    46    18    50 1   
    47    19    20 2   
    48    19    51 1   
    49    20    21 1   
    50    20    52 1   
    51    21    22 1   
    52    21    53 1   
    53    21    54 1   
    54    22    55 1   
    55    22    56 1   
    56    22    57 1   
@<TRIPOS>SUBSTRUCTURE
     1 GJY         1 TEMP              0 ****  ****    0 ROOT
