@<TRIPOS>MOLECULE
GJY
   57    56     1     0     0
SMALL
abcg2


@<TRIPOS>ATOM
      1 O1          -8.3660     1.7830    -1.3240 o          1 GJY      -0.709000
      2 P1          -8.1580     0.5870    -0.4820 p5         1 GJY       1.529800
      3 O2          -9.3180     0.2260     0.5450 os         1 GJY      -0.617400
      4 CM         -10.6970     0.4600     0.2280 c3         1 GJY       0.202900
      5 C1          -6.6680     0.5020     0.5060 c3         1 GJY      -0.457400
      6 C2          -5.3940     0.6710    -0.3230 c3         1 GJY      -0.049400
      7 C3          -4.1550     0.6910     0.5650 c3         1 GJY      -0.071400
      8 C4          -2.8660     0.8560    -0.2280 c3         1 GJY      -0.076400
      9 C5          -1.6270     0.9220     0.6570 c3         1 GJY      -0.074400
     10 C6          -0.3360     1.0930    -0.1340 c3         1 GJY      -0.075400
     11 C7           0.8990     1.2030     0.7500 c3         1 GJY      -0.072400
     12 C8           2.1870     1.3870    -0.0530 c3         1 GJY      -0.043200
     13 C9           3.3740     1.6270     0.8250 c2         1 GJY      -0.216200
     14 C10          4.5010     0.9210     0.8970 c2         1 GJY      -0.212200
     15 C11          4.8840    -0.2860     0.0880 c3         1 GJY      -0.011000
     16 C12          5.9350     0.0810    -0.9220 c2         1 GJY      -0.214200
     17 C13          7.2470    -0.1310    -0.8290 c2         1 GJY      -0.212200
     18 C14          7.9800    -0.8160     0.2880 c3         1 GJY      -0.012000
     19 C15          8.5910    -2.1060    -0.1800 c2         1 GJY      -0.214200
     20 C16          9.8860    -2.3650    -0.3560 c2         1 GJY      -0.216200
     21 C17         11.0440    -1.4500    -0.1000 c3         1 GJY      -0.044200
     22 C18         11.9460    -1.9720     1.0170 c3         1 GJY      -0.086100
     23 F1          -8.0790    -0.7300    -1.3840 f          1 GJY      -0.335400
     24 H1         -10.8720     1.5050    -0.0210 h1         1 GJY       0.047700
     25 H2         -11.0220    -0.1700    -0.6010 h1         1 GJY       0.047700
     26 H3         -11.2690     0.2010     1.1150 h1         1 GJY       0.047700
     27 H4          -6.7430     1.3000     1.2500 hc         1 GJY       0.087700
     28 H5          -6.6570    -0.4440     1.0520 hc         1 GJY       0.087700
     29 H6          -5.3090    -0.1420    -1.0490 hc         1 GJY       0.051200
     30 H7          -5.4440     1.6000    -0.8950 hc         1 GJY       0.051200
     31 H8          -4.2470     1.5070     1.2890 hc         1 GJY       0.040200
     32 H9          -4.1120    -0.2340     1.1500 hc         1 GJY       0.040200
     33 H10         -2.7640     0.0260    -0.9360 hc         1 GJY       0.039700
     34 H11         -2.9260     1.7670    -0.8340 hc         1 GJY       0.039700
     35 H12         -1.7330     1.7530     1.3630 hc         1 GJY       0.037700
     36 H13         -1.5650     0.0130     1.2660 hc         1 GJY       0.037700
     37 H14         -0.2170     0.2510    -0.8250 hc         1 GJY       0.037700
     38 H15         -0.4110     1.9890    -0.7600 hc         1 GJY       0.037700
     39 H16          0.7770     2.0460     1.4390 hc         1 GJY       0.039700
     40 H17          0.9870     0.3090     1.3760 hc         1 GJY       0.039700
     41 H18          2.3370     0.5240    -0.7070 hc         1 GJY       0.044700
     42 H19          2.0620     2.2510    -0.7160 hc         1 GJY       0.044700
     43 H20          3.2850     2.4860     1.4850 ha         1 GJY       0.165000
     44 H21          5.2650     1.2570     1.5930 ha         1 GJY       0.167000
     45 H22          5.2490    -1.0670     0.7580 hc         1 GJY       0.049700
     46 H23          4.0170    -0.7010    -0.4290 hc         1 GJY       0.049700
     47 H24          5.5690     0.6100    -1.7960 ha         1 GJY       0.169000
     48 H25          7.8750     0.2140    -1.6450 ha         1 GJY       0.169000
     49 H26          8.7500    -0.1440     0.6730 hc         1 GJY       0.050200
     50 H27          7.3070    -1.0190     1.1250 hc         1 GJY       0.050200
     51 H28          7.8780    -2.8910    -0.4150 ha         1 GJY       0.168000
     52 H29         10.1560    -3.3580    -0.7070 ha         1 GJY       0.165000
     53 H30         11.6330    -1.3620    -1.0180 hc         1 GJY       0.043200
     54 H31         10.7040    -0.4420     0.1420 hc         1 GJY       0.043200
     55 H32         11.4030    -2.0350     1.9610 hc         1 GJY       0.032367
     56 H33         12.3280    -2.9680     0.7870 hc         1 GJY       0.032367
     57 H34         12.8040    -1.3150     1.1670 hc         1 GJY       0.032367
@<TRIPOS>BOND
     1     1     2 2   
     2     2     3 1   
     3     2     5 1   
     4     2    23 1   
     5     3     4 1   
     6     4    24 1   
     7     4    25 1   
     8     4    26 1   
     9     5     6 1   
    10     5    27 1   
    11     5    28 1   
    12     6     7 1   
    13     6    29 1   
    14     6    30 1   
    15     7     8 1   
    16     7    31 1   
    17     7    32 1   
    18     8     9 1   
    19     8    33 1   
    20     8    34 1   
    21     9    10 1   
    22     9    35 1   
    23     9    36 1   
    24    10    11 1   
    25    10    37 1   
    26    10    38 1   
    27    11    12 1   
    28    11    39 1   
    29    11    40 1   
    30    12    13 1   
    31    12    41 1   
    32    12    42 1   
    33    13    14 2   
    34    13    43 1   
    35    14    15 1   
    36    14    44 1   
    37    15    16 1   
    38    15    45 1   
    39    15    46 1   
    40    16    17 2   
    41    16    47 1   
    42    17    18 1   
    43    17    48 1   
    44    18    19 1   
    45    18    49 1   
    46    18    50 1   
    47    19    20 2   
    48    19    51 1   
    49    20    21 1   
    50    20    52 1   
    51    21    22 1   
    52    21    53 1   
    53    21    54 1   
    54    22    55 1   
    55    22    56 1   
    56    22    57 1   
@<TRIPOS>SUBSTRUCTURE
     1 GJY         1 TEMP              0 ****  ****    0 ROOT
