@<TRIPOS>MOLECULE
GJZ
   21    22     1     0     0
SMALL
bcc


@<TRIPOS>ATOM
      1 N1           3.3560     0.4920     0.8440 n8         1 GJZ      -0.857800
      2 C2           1.1940     0.2850    -0.4590 cx         1 GJZ      -0.082400
      3 C3           2.2270    -0.3040     0.4580 cx         1 GJZ       0.124500
      4 C4           2.0460    -0.8810    -0.9100 cx         1 GJZ      -0.172400
      5 C5          -0.2590     0.1400    -0.2040 ca         1 GJZ      -0.041300
      6 C6          -1.1110     1.2180    -0.4420 ca         1 GJZ      -0.124000
      7 C7          -0.8190    -1.0480     0.2690 ca         1 GJZ      -0.124000
      8 C8          -2.4770     1.1180    -0.2150 ca         1 GJZ      -0.126000
      9 C9          -2.1840    -1.1510     0.4970 ca         1 GJZ      -0.126000
     10 C10         -3.0210    -0.0690     0.2560 ca         1 GJZ      -0.129000
     11 HN1          4.1850    -0.0890     0.8890 hn         1 GJZ       0.343300
     12 HN1A         3.5470     1.1950     0.1410 hn         1 GJZ       0.343300
     13 H3           1.8330    -0.9020     1.2750 h1         1 GJZ       0.098700
     14 H4           1.5650    -1.8470    -1.0080 hc         1 GJZ       0.074700
     15 H4A          2.8020    -0.6790    -1.6600 hc         1 GJZ       0.074700
     16 H6          -0.6990     2.1500    -0.8110 ha         1 GJZ       0.127500
     17 H7          -0.1900    -1.9100     0.4610 ha         1 GJZ       0.127500
     18 H8          -3.1170     1.9690    -0.4100 ha         1 GJZ       0.129500
     19 H9          -2.5950    -2.0840     0.8620 ha         1 GJZ       0.129500
     20 H10         -4.0860    -0.1520     0.4310 ha         1 GJZ       0.130000
     21 H2           1.4670     1.2440    -0.8900 hc         1 GJZ       0.079700
@<TRIPOS>BOND
     1     1     3 1   
     2     1    11 1   
     3     1    12 1   
     4     2     3 1   
     5     2     4 1   
     6     2     5 1   
     7     2    21 1   
     8     3     4 1   
     9     3    13 1   
    10     4    14 1   
    11     4    15 1   
    12     5     6 ar  
    13     5     7 ar  
    14     6     8 ar  
    15     6    16 1   
    16     7     9 ar  
    17     7    17 1   
    18     8    10 ar  
    19     8    18 1   
    20     9    10 ar  
    21     9    19 1   
    22    10    20 1   
@<TRIPOS>SUBSTRUCTURE
     1 GJZ         1 TEMP              0 ****  ****    0 ROOT
