@<TRIPOS>MOLECULE
GJZ
   21    22     1     0     0
SMALL
No Charge or Current Charge


@<TRIPOS>ATOM
      1 N1           3.4400     0.4270     0.8080 n8         1 GJZ      -0.968200
      2 C2           1.2000     0.3430    -0.4060 cx         1 GJZ      -0.082400
      3 C3           2.2340    -0.3080     0.4860 cx         1 GJZ       0.124500
      4 C4           2.0630    -0.7810    -0.9330 cx         1 GJZ      -0.172400
      5 C5          -0.2840     0.1730    -0.1760 ca         1 GJZ      -0.041300
      6 C6          -1.1600     1.2370    -0.4770 ca         1 GJZ      -0.106000
      7 C7          -0.8220    -1.0290     0.3340 ca         1 GJZ      -0.106000
      8 C8          -2.5440     1.1050    -0.2720 ca         1 GJZ      -0.108000
      9 C9          -2.2070    -1.1610     0.5380 ca         1 GJZ      -0.108000
     10 C10         -3.0690    -0.0950     0.2360 ca         1 GJZ      -0.111000
     11 HN1          4.2160    -0.2320     0.9520 hn         1 GJZ       0.398500
     12 HN1A         3.7380     0.9670    -0.0120 hn         1 GJZ       0.398500
     13 H3           1.8890    -0.9560     1.2970 h1         1 GJZ       0.098700
     14 H4           1.6030    -1.7530    -1.0880 hc         1 GJZ       0.074700
     15 H4A          2.8290    -0.5260    -1.6610 hc         1 GJZ       0.074700
     16 H6          -0.7680     2.1720    -0.8710 ha         1 GJZ       0.109500
     17 H7          -0.1740    -1.8680     0.5740 ha         1 GJZ       0.109500
     18 H8          -3.2100     1.9320    -0.5080 ha         1 GJZ       0.111500
     19 H9          -2.6120    -2.0910     0.9310 ha         1 GJZ       0.111500
     20 H10         -4.1400    -0.1980     0.3940 ha         1 GJZ       0.112000
     21 H2           1.4430     1.3380    -0.7730 hc         1 GJZ       0.079700
@<TRIPOS>BOND
     1     1     3 1   
     2     1    11 1   
     3     1    12 1   
     4     2     3 1   
     5     2     4 1   
     6     2     5 1   
     7     2    21 1   
     8     3     4 1   
     9     3    13 1   
    10     4    14 1   
    11     4    15 1   
    12     5     6 ar  
    13     5     7 ar  
    14     6     8 ar  
    15     6    16 1   
    16     7     9 ar  
    17     7    17 1   
    18     8    10 ar  
    19     8    18 1   
    20     9    10 ar  
    21     9    19 1   
    22    10    20 1   
@<TRIPOS>SUBSTRUCTURE
     1 GJZ         1 TEMP              0 ****  ****    0 ROOT
