@<TRIPOS>MOLECULE
GK0
   35    36     1     0     0
SMALL
bcc


@<TRIPOS>ATOM
      1 C01          3.9180     1.3660    -0.1900 ca         1 GK0      -0.155500
      2 C03          2.9380     0.4410     0.1470 ca         1 GK0      -0.116600
      3 C04          3.2800    -0.8920     0.3690 ca         1 GK0      -0.155500
      4 C06          4.6010    -1.2920     0.2400 ca         1 GK0       0.112600
      5 O07          5.0300    -2.5550     0.4510 oh         1 GK0      -0.500600
      6 C09          5.5850    -0.3720    -0.1180 ca         1 GK0       0.037100
      7 O10          6.8850    -0.7060    -0.2600 oh         1 GK0      -0.513100
      8 C12          5.2370     0.9620    -0.3360 ca         1 GK0       0.112600
      9 O13          6.1610     1.8750    -0.6900 oh         1 GK0      -0.500600
     10 C15          1.5430     0.9400     0.2900 c          1 GK0       0.701700
     11 O16          1.2900     2.0920     0.5900 o          1 GK0      -0.531100
     12 N17          0.5770     0.0150     0.0420 ns         1 GK0      -0.346900
     13 N18         -0.7200     0.3400     0.1830 n2         1 GK0      -0.400300
     14 C19         -1.5830    -0.5410    -0.1310 ce         1 GK0       0.370800
     15 C22         -5.7610     0.1310     0.1620 ca         1 GK0       0.026100
     16 O23         -7.0820     0.3940     0.2710 oh         1 GK0      -0.516100
     17 C25         -5.2640    -1.0940    -0.2800 ca         1 GK0       0.115100
     18 O26         -6.1910    -2.0230    -0.6010 oh         1 GK0      -0.503100
     19 C28         -3.8960    -1.3000    -0.3690 ca         1 GK0      -0.168500
     20 C30         -3.0130    -0.2820    -0.0150 ca         1 GK0      -0.087900
     21 C31         -3.5050     0.9440     0.4280 ca         1 GK0      -0.168500
     22 C33         -4.8710     1.1500     0.5150 ca         1 GK0       0.115100
     23 O34         -5.3230     2.3460     0.9430 oh         1 GK0      -0.503100
     24 H1           3.6640     2.4050    -0.3590 ha         1 GK0       0.154500
     25 H2           2.5420    -1.6240     0.6780 ha         1 GK0       0.154500
     26 H3           4.2940    -3.1430     0.6530 ho         1 GK0       0.443500
     27 H4           7.0130    -1.6570    -0.1570 ho         1 GK0       0.455000
     28 H5           7.0340     1.4700    -0.7620 ho         1 GK0       0.443500
     29 H6           0.8250    -0.8900    -0.3400 hn         1 GK0       0.304500
     30 H7          -1.2940    -1.5270    -0.5040 h4         1 GK0      -0.019200
     31 H8          -7.6100    -0.3440    -0.0540 ho         1 GK0       0.452000
     32 H9          -5.7750    -2.8180    -0.9530 ho         1 GK0       0.440500
     33 H10         -3.5170    -2.2550    -0.7170 ha         1 GK0       0.154000
     34 H11         -2.8270     1.7430     0.7010 ha         1 GK0       0.154000
     35 H12         -6.2870     2.3740     0.9250 ho         1 GK0       0.440500
@<TRIPOS>BOND
     1     1     2 ar  
     2     1     8 ar  
     3     1    24 1   
     4     2     3 ar  
     5     2    10 1   
     6     3     4 ar  
     7     3    25 1   
     8     4     5 1   
     9     4     6 ar  
    10     5    26 1   
    11     6     7 1   
    12     6     8 ar  
    13     7    27 1   
    14     8     9 1   
    15     9    28 1   
    16    10    11 2   
    17    10    12 1   
    18    12    13 1   
    19    12    29 1   
    20    13    14 2   
    21    14    20 1   
    22    14    30 1   
    23    15    16 1   
    24    15    17 ar  
    25    15    22 ar  
    26    16    31 1   
    27    17    18 1   
    28    17    19 ar  
    29    18    32 1   
    30    19    20 ar  
    31    19    33 1   
    32    20    21 ar  
    33    21    22 ar  
    34    21    34 1   
    35    22    23 1   
    36    23    35 1   
@<TRIPOS>SUBSTRUCTURE
     1 GK0         1 TEMP              0 ****  ****    0 ROOT
