@<TRIPOS>MOLECULE
GK0
   35    36     1     0     0
SMALL
No Charge or Current Charge


@<TRIPOS>ATOM
      1 C01          3.8160     1.0200    -0.9190 ca         1 GK0      -0.137500
      2 C03          2.9210     0.2810    -0.1060 ca         1 GK0      -0.116600
      3 C04          3.4420    -0.7920     0.6660 ca         1 GK0      -0.137500
      4 C06          4.8130    -1.1090     0.6220 ca         1 GK0       0.112600
      5 O07          5.3110    -2.1440     1.3690 oh         1 GK0      -0.539600
      6 C09          5.6860    -0.3620    -0.1920 ca         1 GK0       0.037100
      7 O10          7.0220    -0.6760    -0.2320 oh         1 GK0      -0.552100
      8 C12          5.1810     0.7010    -0.9610 ca         1 GK0       0.112600
      9 O13          6.0300     1.4220    -1.7490 oh         1 GK0      -0.539600
     10 C15          1.4460     0.6610    -0.0910 c          1 GK0       0.634700
     11 O16          1.0120     1.5890    -0.7660 o          1 GK0      -0.531100
     12 N17          0.6110    -0.1030     0.7250 ns         1 GK0      -0.279900
     13 N18         -0.7510     0.1190     0.8630 n2         1 GK0      -0.400300
     14 C19         -1.5720    -0.4020     0.0020 ce         1 GK0       0.370800
     15 C22         -5.8590     0.1620     0.1920 ca         1 GK0       0.026100
     16 O23         -7.2210     0.3320     0.2400 oh         1 GK0      -0.555100
     17 C25         -5.2840    -0.6150    -0.8330 ca         1 GK0       0.115100
     18 O26         -6.0900    -1.1950    -1.7760 oh         1 GK0      -0.542100
     19 C28         -3.8900    -0.7910    -0.8850 ca         1 GK0      -0.150500
     20 C30         -3.0530    -0.1950     0.0850 ca         1 GK0      -0.087900
     21 C31         -3.6400     0.5830     1.1100 ca         1 GK0      -0.150500
     22 C33         -5.0310     0.7580     1.1610 ca         1 GK0       0.115100
     23 O34         -5.5920     1.5090     2.1520 oh         1 GK0      -0.542100
     24 H1           3.4530     1.8480    -1.5240 ha         1 GK0       0.136500
     25 H2           2.7940    -1.3860     1.3040 ha         1 GK0       0.136500
     26 H3           4.5770    -2.5560     1.8760 ho         1 GK0       0.482500
     27 H4           7.1480    -1.4430     0.3760 ho         1 GK0       0.494000
     28 H5           6.9220     1.0270    -1.6210 ho         1 GK0       0.482500
     29 H6           1.0620    -0.8480     1.2430 hn         1 GK0       0.304500
     30 H7          -1.2080    -1.0170    -0.8240 h4         1 GK0      -0.019200
     31 H8          -7.5940    -0.1660    -0.5240 ho         1 GK0       0.491000
     32 H9          -5.5290    -1.6940    -2.4090 ho         1 GK0       0.479500
     33 H10         -3.4480    -1.3910    -1.6780 ha         1 GK0       0.136000
     34 H11         -3.0200     1.0540     1.8700 ha         1 GK0       0.136000
     35 H12         -6.5620     1.4920     1.9880 ho         1 GK0       0.479500
@<TRIPOS>BOND
     1     1     2 ar  
     2     1     8 ar  
     3     1    24 1   
     4     2     3 ar  
     5     2    10 1   
     6     3     4 ar  
     7     3    25 1   
     8     4     5 1   
     9     4     6 ar  
    10     5    26 1   
    11     6     7 1   
    12     6     8 ar  
    13     7    27 1   
    14     8     9 1   
    15     9    28 1   
    16    10    11 2   
    17    10    12 1   
    18    12    13 1   
    19    12    29 1   
    20    13    14 2   
    21    14    20 1   
    22    14    30 1   
    23    15    16 1   
    24    15    17 ar  
    25    15    22 ar  
    26    16    31 1   
    27    17    18 1   
    28    17    19 ar  
    29    18    32 1   
    30    19    20 ar  
    31    19    33 1   
    32    20    21 ar  
    33    21    22 ar  
    34    21    34 1   
    35    22    23 1   
    36    23    35 1   
@<TRIPOS>SUBSTRUCTURE
     1 GK0         1 TEMP              0 ****  ****    0 ROOT
