@<TRIPOS>MOLECULE
GK1
   41    44     1     0     0
SMALL
abcg2


@<TRIPOS>ATOM
      1 O2          -8.0760    -0.7070    -0.3600 o          1 GK1      -0.504100
      2 C20         -6.9320    -1.0540    -0.5160 c          1 GK1       0.505400
      3 C19         -5.7940    -0.1960    -0.1780 cc         1 GK1       0.296900
      4 S           -6.0270     1.3830     0.4640 ss         1 GK1       0.097600
      5 C18         -4.3420     1.5680     0.5210 cc         1 GK1      -0.278000
      6 N3          -4.5550    -0.5460    -0.3310 nd         1 GK1      -0.600000
      7 C17         -3.7060     0.4400     0.0600 cd         1 GK1       0.342500
      8 C13         -2.2550     0.2390    -0.0320 ca         1 GK1      -0.111500
      9 C12         -1.7450    -0.9570    -0.4740 ca         1 GK1      -0.053000
     10 C14         -1.3590     1.2660     0.3420 ca         1 GK1      -0.106000
     11 C15         -0.0080     1.0820     0.2530 ca         1 GK1      -0.094000
     12 C16          0.5360    -0.1340    -0.2160 ca         1 GK1      -0.122000
     13 C11         -0.3540    -1.1780    -0.5690 ca         1 GK1       0.292000
     14 N2           0.0580    -2.3980    -0.9920 nb         1 GK1      -0.687000
     15 C10          1.3510    -2.5890    -1.0680 ca         1 GK1       0.386900
     16 C9           2.3290    -1.6370    -0.7620 ca         1 GK1      -0.260000
     17 C8           1.9430    -0.3780    -0.3370 ca         1 GK1       0.378000
     18 N1           2.8250     0.6210    -0.0550 nu         1 GK1      -0.990000
     19 C7           4.2140     0.5060     0.0880 ca         1 GK1       0.334000
     20 C2           5.0360     1.4700    -0.5040 ca         1 GK1      -0.149300
     21 C1           4.4630     2.5840    -1.3310 c3         1 GK1      -0.040800
     22 C6           4.7550    -0.5240     0.8550 ca         1 GK1      -0.234000
     23 C5           6.1300    -0.6260     1.0200 ca         1 GK1       0.160100
     24 O1           6.6980    -1.6110     1.7450 oh         1 GK1      -0.531100
     25 C4           6.9650     0.3250     0.4400 ca         1 GK1      -0.159000
     26 C3           6.4080     1.3540    -0.2990 ca         1 GK1      -0.052000
     27 H20         -6.6490    -2.0370    -0.9220 h4         1 GK1       0.030200
     28 H18         -3.9020     2.4820     0.8890 h4         1 GK1       0.163000
     29 H12         -2.4010    -1.7690    -0.7580 ha         1 GK1       0.152000
     30 H14         -1.7310     2.2120     0.7120 ha         1 GK1       0.112000
     31 H15          0.6330     1.8940     0.5700 ha         1 GK1       0.106000
     32 H10          1.6770    -3.5660    -1.4100 h4         1 GK1       0.016100
     33 H9           3.3690    -1.8990    -0.8890 ha         1 GK1       0.132000
     34 H1           2.4650     1.5610    -0.0560 hn         1 GK1       0.500000
     35 H11          3.8650     3.2790    -0.7360 hc         1 GK1       0.041367
     36 H12A         5.2570     3.1660    -1.7960 hc         1 GK1       0.041367
     37 H13          3.8200     2.2080    -2.1290 hc         1 GK1       0.041367
     38 H6           4.0970    -1.2390     1.3360 ha         1 GK1       0.127000
     39 H1A          6.0260    -2.2110     2.0850 ho         1 GK1       0.467000
     40 H4           8.0380     0.2570     0.5690 ha         1 GK1       0.133000
     41 H3           7.0660     2.0880    -0.7480 ha         1 GK1       0.116000
@<TRIPOS>BOND
     1     1     2 2   
     2     2     3 1   
     3     2    27 1   
     4     3     4 1   
     5     3     6 2   
     6     4     5 1   
     7     5     7 2   
     8     5    28 1   
     9     6     7 1   
    10     7     8 1   
    11     8     9 ar  
    12     8    10 ar  
    13     9    13 ar  
    14     9    29 1   
    15    10    11 ar  
    16    10    30 1   
    17    11    12 ar  
    18    11    31 1   
    19    12    13 ar  
    20    12    17 ar  
    21    13    14 ar  
    22    14    15 ar  
    23    15    16 ar  
    24    15    32 1   
    25    16    17 ar  
    26    16    33 1   
    27    17    18 1   
    28    18    19 1   
    29    18    34 1   
    30    19    20 ar  
    31    19    22 ar  
    32    20    21 1   
    33    20    26 ar  
    34    21    35 1   
    35    21    36 1   
    36    21    37 1   
    37    22    23 ar  
    38    22    38 1   
    39    23    24 1   
    40    23    25 ar  
    41    24    39 1   
    42    25    26 ar  
    43    25    40 1   
    44    26    41 1   
@<TRIPOS>SUBSTRUCTURE
     1 GK1         1 TEMP              0 ****  ****    0 ROOT
