@<TRIPOS>MOLECULE
GK1
   41    44     1     0     0
SMALL
No Charge or Current Charge


@<TRIPOS>ATOM
      1 O2          -8.2300    -0.6130     0.0360 o          1 GK1      -0.504100
      2 C20         -7.0710    -0.9910    -0.1400 c          1 GK1       0.505400
      3 C19         -5.8530    -0.1520     0.0170 cc         1 GK1       0.296900
      4 S           -6.0120     1.5200     0.4890 ss         1 GK1       0.097600
      5 C18         -4.2790     1.6410     0.4160 cc         1 GK1      -0.278000
      6 N3          -4.6050    -0.5820    -0.1790 nd         1 GK1      -0.600000
      7 C17         -3.7000     0.4460     0.0500 cd         1 GK1       0.342500
      8 C13         -2.2440     0.2160    -0.1040 ca         1 GK1      -0.111500
      9 C12         -1.7490    -1.0530    -0.4850 ca         1 GK1      -0.053000
     10 C14         -1.3130     1.2500     0.1280 ca         1 GK1      -0.106000
     11 C15          0.0640     1.0230    -0.0190 ca         1 GK1      -0.094000
     12 C16          0.5460    -0.2490    -0.4070 ca         1 GK1      -0.122000
     13 C11         -0.3730    -1.3010    -0.6390 ca         1 GK1       0.292000
     14 N2           0.0330    -2.5380    -1.0050 nb         1 GK1      -0.687000
     15 C10          1.3510    -2.7730    -1.1590 ca         1 GK1       0.386900
     16 C9           2.3220    -1.7930    -0.9530 ca         1 GK1      -0.260000
     17 C8           1.9250    -0.5150    -0.5600 ca         1 GK1       0.378000
     18 N1           2.8880     0.4840    -0.3820 nu         1 GK1      -0.990000
     19 C7           4.2370     0.4750    -0.0240 ca         1 GK1       0.334000
     20 C2           5.0720     1.5560    -0.3930 ca         1 GK1      -0.149300
     21 C1           4.5390     2.7330    -1.2100 c3         1 GK1      -0.040800
     22 C6           4.7570    -0.5800     0.7440 ca         1 GK1      -0.234000
     23 C5           6.1060    -0.5810     1.1200 ca         1 GK1       0.160100
     24 O1           6.6090    -1.6060     1.8630 oh         1 GK1      -0.531100
     25 C4           6.9420     0.4760     0.7420 ca         1 GK1      -0.159000
     26 C3           6.4290     1.5450    -0.0090 ca         1 GK1      -0.052000
     27 H20         -6.8640    -2.0410    -0.4430 h4         1 GK1       0.030200
     28 H18         -3.8110     2.5860     0.6480 h4         1 GK1       0.163000
     29 H12         -2.4370    -1.8730    -0.6690 ha         1 GK1       0.152000
     30 H14         -1.6440     2.2410     0.4270 ha         1 GK1       0.112000
     31 H15          0.7440     1.8460     0.1800 ha         1 GK1       0.106000
     32 H10          1.6340    -3.7790    -1.4680 h4         1 GK1       0.016100
     33 H9           3.3650    -2.0330    -1.1210 ha         1 GK1       0.132000
     34 H1           2.5370     1.4170    -0.5820 hn         1 GK1       0.500000
     35 H11          3.7740     3.2870    -0.6530 hc         1 GK1       0.041367
     36 H12A         5.3340     3.4450    -1.4660 hc         1 GK1       0.041367
     37 H13          4.0940     2.3920    -2.1520 hc         1 GK1       0.041367
     38 H6           4.1070    -1.3880     1.0620 ha         1 GK1       0.127000
     39 H1A          5.8870    -2.2460     2.0370 ho         1 GK1       0.467000
     40 H4           7.9890     0.4720     1.0370 ha         1 GK1       0.133000
     41 H3           7.0870     2.3640    -0.2910 ha         1 GK1       0.116000
@<TRIPOS>BOND
     1     1     2 2   
     2     2     3 1   
     3     2    27 1   
     4     3     4 1   
     5     3     6 2   
     6     4     5 1   
     7     5     7 2   
     8     5    28 1   
     9     6     7 1   
    10     7     8 1   
    11     8     9 ar  
    12     8    10 ar  
    13     9    13 ar  
    14     9    29 1   
    15    10    11 ar  
    16    10    30 1   
    17    11    12 ar  
    18    11    31 1   
    19    12    13 ar  
    20    12    17 ar  
    21    13    14 ar  
    22    14    15 ar  
    23    15    16 ar  
    24    15    32 1   
    25    16    17 ar  
    26    16    33 1   
    27    17    18 1   
    28    18    19 1   
    29    18    34 1   
    30    19    20 ar  
    31    19    22 ar  
    32    20    21 1   
    33    20    26 ar  
    34    21    35 1   
    35    21    36 1   
    36    21    37 1   
    37    22    23 ar  
    38    22    38 1   
    39    23    24 1   
    40    23    25 ar  
    41    24    39 1   
    42    25    26 ar  
    43    25    40 1   
    44    26    41 1   
@<TRIPOS>SUBSTRUCTURE
     1 GK1         1 TEMP              0 ****  ****    0 ROOT
