@<TRIPOS>MOLECULE
GK3
   48    51     1     0     0
SMALL
No Charge or Current Charge


@<TRIPOS>ATOM
      1 N5          -9.5330    -0.0250    -1.6260 n1         1 GK3      -0.448000
      2 C5          -8.6660    -0.3400    -0.9080 cg         1 GK3       0.322000
      3 C18         -7.5910    -0.7210    -0.0320 ca         1 GK3       0.011000
      4 C2          -7.8490    -1.5370     1.0860 ca         1 GK3      -0.102000
      5 C29         -6.8000    -1.9100     1.9390 ca         1 GK3      -0.084000
      6 C19         -5.4920    -1.4680     1.6790 ca         1 GK3      -0.152000
      7 C22         -6.2770    -0.2800    -0.2900 ca         1 GK3      -0.100000
      8 C15         -5.2150    -0.6500     0.5670 ca         1 GK3      -0.017000
      9 N3          -3.8630    -0.2480     0.3750 ns         1 GK3      -0.146000
     10 C3          -3.2480     0.5620    -0.5730 c          1 GK3       0.622700
     11 O1          -3.8580     1.1140    -1.4820 o          1 GK3      -0.568100
     12 C25         -1.7450     0.7350    -0.4200 ca         1 GK3      -0.155600
     13 C9          -1.0120     0.1080     0.6180 ca         1 GK3      -0.071500
     14 C10         -1.0410     1.5440    -1.3420 ca         1 GK3      -0.071500
     15 C16          0.3480     1.7240    -1.2270 ca         1 GK3      -0.106000
     16 C13          1.0810     1.1110    -0.1870 cp         1 GK3      -0.011000
     17 C27          0.3770     0.2930     0.7250 ca         1 GK3      -0.106000
     18 C28          2.5600     1.2880    -0.0660 cp         1 GK3      -0.056000
     19 C14          3.3880     0.1400    -0.0350 ca         1 GK3      -0.048000
     20 C17          4.7920     0.2370     0.0690 ca         1 GK3      -0.147500
     21 C12          5.6240    -0.9730     0.0910 cc         1 GK3       0.481500
     22 O2           6.9730    -0.8560     0.1910 os         1 GK3      -0.285000
     23 C7           7.3610    -2.1540     0.1790 cc         1 GK3       0.422300
     24 C21          8.8190    -2.4840     0.2730 c3         1 GK3      -0.121400
     25 N4           6.3520    -3.0030     0.0800 nd         1 GK3      -0.357000
     26 N7           5.2180    -2.2320     0.0220 nd         1 GK3      -0.359000
     27 C20          5.3740     1.5180     0.1480 ca         1 GK3      -0.064000
     28 C26          4.5700     2.6680     0.1300 ca         1 GK3      -0.123000
     29 C23          3.1690     2.5700     0.0300 ca         1 GK3      -0.032300
     30 C1           2.3530     3.8600     0.0570 c3         1 GK3      -0.054800
     31 H2          -8.8610    -1.8830     1.2930 ha         1 GK3       0.129000
     32 H29         -7.0000    -2.5410     2.8030 ha         1 GK3       0.120000
     33 H19         -4.6880    -1.7650     2.3500 ha         1 GK3       0.113000
     34 H22         -6.1060     0.3460    -1.1600 ha         1 GK3       0.161000
     35 HN3         -3.2300    -0.6270     1.0650 hn         1 GK3       0.155000
     36 H9          -1.4990    -0.5280     1.3540 ha         1 GK3       0.126500
     37 H10         -1.5670     2.0360    -2.1570 ha         1 GK3       0.126500
     38 H16          0.8650     2.3390    -1.9600 ha         1 GK3       0.124000
     39 H27          0.9180    -0.1960     1.5320 ha         1 GK3       0.124000
     40 H14          2.9210    -0.8410    -0.1060 ha         1 GK3       0.143000
     41 H21          9.2430    -2.0930     1.2040 hc         1 GK3       0.070033
     42 H21A         8.9790    -3.5680     0.2540 hc         1 GK3       0.070033
     43 H21B         9.3680    -2.0430    -0.5660 hc         1 GK3       0.070033
     44 H20          6.4540     1.6330     0.2280 ha         1 GK3       0.128000
     45 H26          5.0420     3.6450     0.2010 ha         1 GK3       0.119000
     46 H1           2.1120     4.1940    -0.9580 hc         1 GK3       0.049033
     47 H1A          1.4120     3.7300     0.6050 hc         1 GK3       0.049033
     48 H1B          2.9000     4.6720     0.5510 hc         1 GK3       0.049033
@<TRIPOS>BOND
     1     1     2 3   
     2     2     3 1   
     3     3     4 ar  
     4     3     7 ar  
     5     4     5 ar  
     6     4    31 1   
     7     5     6 ar  
     8     5    32 1   
     9     6     8 ar  
    10     6    33 1   
    11     7     8 ar  
    12     7    34 1   
    13     8     9 1   
    14     9    10 1   
    15     9    35 1   
    16    10    11 2   
    17    10    12 1   
    18    12    13 ar  
    19    12    14 ar  
    20    13    17 ar  
    21    13    36 1   
    22    14    15 ar  
    23    14    37 1   
    24    15    16 ar  
    25    15    38 1   
    26    16    17 ar  
    27    16    18 1   
    28    17    39 1   
    29    18    19 ar  
    30    18    29 ar  
    31    19    20 ar  
    32    19    40 1   
    33    20    21 1   
    34    20    27 ar  
    35    21    22 1   
    36    21    26 2   
    37    22    23 1   
    38    23    24 1   
    39    23    25 2   
    40    24    41 1   
    41    24    42 1   
    42    24    43 1   
    43    25    26 1   
    44    27    28 ar  
    45    27    44 1   
    46    28    29 ar  
    47    28    45 1   
    48    29    30 1   
    49    30    46 1   
    50    30    47 1   
    51    30    48 1   
@<TRIPOS>SUBSTRUCTURE
     1 GK3         1 TEMP              0 ****  ****    0 ROOT
