@<TRIPOS>MOLECULE
GK3
   48    51     1     0     0
SMALL
bcc


@<TRIPOS>ATOM
      1 N5          -8.9320    -1.3440    -2.2260 n1         1 GK3      -0.358800
      2 C5          -8.2250    -1.1760    -1.3320 cg         1 GK3       0.232800
      3 C18         -7.3520    -0.9700    -0.2190 ca         1 GK3       0.011000
      4 C2          -7.8390    -1.1550     1.0710 ca         1 GK3      -0.120000
      5 C29         -6.9740    -0.9470     2.1320 ca         1 GK3      -0.102000
      6 C19         -5.6640    -0.5690     1.9070 ca         1 GK3      -0.170000
      7 C22         -6.0350    -0.5880    -0.4680 ca         1 GK3      -0.118000
      8 C15         -5.1760    -0.3880     0.6090 ca         1 GK3       0.075600
      9 N3          -3.8330    -0.0340     0.4840 ns         1 GK3      -0.472100
     10 C3          -3.1360     0.2950    -0.6380 c          1 GK3       0.689700
     11 O1          -3.6400     0.4040    -1.7400 o          1 GK3      -0.568100
     12 C25         -1.6800     0.5280    -0.4170 ca         1 GK3      -0.155600
     13 C9          -0.9550    -0.1480     0.5610 ca         1 GK3      -0.089500
     14 C10         -1.0160     1.4170    -1.2570 ca         1 GK3      -0.089500
     15 C16          0.3380     1.6520    -1.0990 ca         1 GK3      -0.124000
     16 C13          1.0670     0.9860    -0.1140 cp         1 GK3      -0.011000
     17 C27          0.4040     0.0770     0.7050 ca         1 GK3      -0.124000
     18 C28          2.5230     1.2010     0.0450 cp         1 GK3      -0.056000
     19 C14          3.3690     0.1080    -0.0910 ca         1 GK3      -0.066000
     20 C17          4.7480     0.2380     0.0520 ca         1 GK3      -0.147500
     21 C12          5.5880    -0.9350    -0.1080 cc         1 GK3       0.525900
     22 O2           6.9210    -0.8280     0.0130 os         1 GK3      -0.373800
     23 C7           7.3610    -2.0820    -0.1960 cc         1 GK3       0.466700
     24 C21          8.8080    -2.3620    -0.1430 c3         1 GK3      -0.121400
     25 N4           6.3860    -2.8870    -0.4240 nd         1 GK3      -0.357000
     26 N7           5.2360    -2.1460    -0.3680 nd         1 GK3      -0.359000
     27 C20          5.2820     1.4890     0.3440 ca         1 GK3      -0.082000
     28 C26          4.4380     2.5750     0.4910 ca         1 GK3      -0.141000
     29 C23          3.0580     2.4630     0.3470 ca         1 GK3      -0.032300
     30 C1           2.1910     3.6720     0.5410 c3         1 GK3      -0.054800
     31 H2          -8.8630    -1.4600     1.2350 ha         1 GK3       0.147000
     32 H29         -7.3210    -1.0820     3.1470 ha         1 GK3       0.138000
     33 H19         -5.0060    -0.4150     2.7540 ha         1 GK3       0.131000
     34 H22         -5.7020    -0.4550    -1.4840 ha         1 GK3       0.179000
     35 HN3         -3.3350     0.0450     1.3570 hn         1 GK3       0.321500
     36 H9          -1.4280    -0.8780     1.2070 ha         1 GK3       0.144500
     37 H10         -1.5600     1.9330    -2.0370 ha         1 GK3       0.144500
     38 H16          0.8360     2.3450    -1.7640 ha         1 GK3       0.142000
     39 H27          0.9520    -0.4570     1.4710 ha         1 GK3       0.142000
     40 H14          2.9480    -0.8600    -0.3310 ha         1 GK3       0.161000
     41 H21          9.2180    -2.1200     0.8370 hc         1 GK3       0.070033
     42 H21A         8.9810    -3.4160    -0.3420 hc         1 GK3       0.070033
     43 H21B         9.3460    -1.7740    -0.8860 hc         1 GK3       0.070033
     44 H20          6.3470     1.6270     0.4660 ha         1 GK3       0.146000
     45 H26          4.8660     3.5380     0.7390 ha         1 GK3       0.137000
     46 H1           1.8950     4.1120    -0.4120 hc         1 GK3       0.049033
     47 H1A          1.2760     3.4340     1.0820 hc         1 GK3       0.049033
     48 H1B          2.7200     4.4420     1.0990 hc         1 GK3       0.049033
@<TRIPOS>BOND
     1     1     2 3   
     2     2     3 1   
     3     3     4 ar  
     4     3     7 ar  
     5     4     5 ar  
     6     4    31 1   
     7     5     6 ar  
     8     5    32 1   
     9     6     8 ar  
    10     6    33 1   
    11     7     8 ar  
    12     7    34 1   
    13     8     9 1   
    14     9    10 1   
    15     9    35 1   
    16    10    11 2   
    17    10    12 1   
    18    12    13 ar  
    19    12    14 ar  
    20    13    17 ar  
    21    13    36 1   
    22    14    15 ar  
    23    14    37 1   
    24    15    16 ar  
    25    15    38 1   
    26    16    17 ar  
    27    16    18 1   
    28    17    39 1   
    29    18    19 ar  
    30    18    29 ar  
    31    19    20 ar  
    32    19    40 1   
    33    20    21 1   
    34    20    27 ar  
    35    21    22 1   
    36    21    26 2   
    37    22    23 1   
    38    23    24 1   
    39    23    25 2   
    40    24    41 1   
    41    24    42 1   
    42    24    43 1   
    43    25    26 1   
    44    27    28 ar  
    45    27    44 1   
    46    28    29 ar  
    47    28    45 1   
    48    29    30 1   
    49    30    46 1   
    50    30    47 1   
    51    30    48 1   
@<TRIPOS>SUBSTRUCTURE
     1 GK3         1 TEMP              0 ****  ****    0 ROOT
