@<TRIPOS>MOLECULE
GK4
   47    50     1     0     0
SMALL
abcg2


@<TRIPOS>ATOM
      1 O2           4.9830    -1.8190    -0.8850 o          1 GK4      -0.605100
      2 C17          4.3570    -0.8740    -0.4200 c          1 GK4       0.610700
      3 N3           4.9460     0.2700    -0.0410 ns         1 GK4      -0.499900
      4 C18          6.3740     0.4960    -0.1520 c3         1 GK4       0.131000
      5 C19          6.7930     1.6190     0.7530 cx         1 GK4      -0.151700
      6 C21          7.9540     2.4780     0.3630 cx         1 GK4      -0.127400
      7 C20          6.5650     3.0400     0.3290 cx         1 GK4      -0.127400
      8 C14          2.8740    -0.9470    -0.2430 ca         1 GK4      -0.145600
      9 C13          2.1870    -0.1950     0.7060 ca         1 GK4      -0.073000
     10 C12          0.8130    -0.3240     0.8450 ca         1 GK4      -0.107500
     11 C15          2.1590    -1.8380    -1.0410 ca         1 GK4      -0.073000
     12 C16          0.7870    -1.9610    -0.9050 ca         1 GK4      -0.107500
     13 C11          0.0950    -1.2090     0.0430 cp         1 GK4      -0.019000
     14 C9          -1.3740    -1.3220     0.1900 cp         1 GK4      -0.052000
     15 C7          -1.9910    -2.5380     0.5240 ca         1 GK4      -0.031300
     16 C8          -1.2030    -3.7890     0.7770 c3         1 GK4      -0.054800
     17 C6          -3.3770    -2.5610     0.6500 ca         1 GK4      -0.124000
     18 C5          -4.1510    -1.4300     0.4550 ca         1 GK4      -0.066000
     19 C10         -2.1480    -0.1830     0.0070 ca         1 GK4      -0.049000
     20 C4          -3.5350    -0.2240     0.1330 ca         1 GK4      -0.149500
     21 C3          -4.3010     0.9910    -0.0760 cc         1 GK4       0.484500
     22 N2          -3.8760     2.1710    -0.3700 nd         1 GK4      -0.362000
     23 N1          -4.9790     2.9770    -0.4610 nd         1 GK4      -0.359000
     24 O1          -5.6390     0.9690     0.0360 os         1 GK4      -0.286000
     25 C2          -6.0040     2.2390    -0.2160 cc         1 GK4       0.421300
     26 C1          -7.4320     2.6040    -0.1840 c3         1 GK4      -0.120400
     27 HN3          4.3760     1.0740     0.1680 hn         1 GK4       0.316500
     28 H18          6.8970    -0.4220     0.1190 h1         1 GK4       0.056200
     29 H18A         6.6470     0.7260    -1.1880 h1         1 GK4       0.056200
     30 H19          6.6820     1.4110     1.8130 hc         1 GK4       0.084700
     31 H21          8.6260     2.8130     1.1430 hc         1 GK4       0.073450
     32 H21A         8.4380     2.2720    -0.5830 hc         1 GK4       0.073450
     33 H20          6.1150     3.2200    -0.6400 hc         1 GK4       0.073450
     34 H20A         6.2860     3.7590     1.0880 hc         1 GK4       0.073450
     35 H13          2.7130     0.4780     1.3710 ha         1 GK4       0.126000
     36 H12          0.2980     0.2570     1.6000 ha         1 GK4       0.121500
     37 H15          2.6760    -2.4310    -1.7840 ha         1 GK4       0.126000
     38 H16          0.2490    -2.6410    -1.5530 ha         1 GK4       0.121500
     39 H8          -0.8670    -4.2500    -0.1530 hc         1 GK4       0.050367
     40 H8A         -0.3150    -3.5940     1.3770 hc         1 GK4       0.050367
     41 H8B         -1.8100    -4.5260     1.3020 hc         1 GK4       0.050367
     42 H6          -3.8660    -3.4890     0.9210 ha         1 GK4       0.119000
     43 H5          -5.2250    -1.4990     0.5620 ha         1 GK4       0.127000
     44 H10         -1.6630     0.7500    -0.2530 ha         1 GK4       0.141000
     45 H1          -7.8660     2.3910     0.7930 hc         1 GK4       0.069700
     46 H1A         -7.5400     3.6650    -0.3910 hc         1 GK4       0.069700
     47 H1B         -7.9940     2.0430    -0.9310 hc         1 GK4       0.069700
@<TRIPOS>BOND
     1     1     2 2   
     2     2     3 1   
     3     2     8 1   
     4     3     4 1   
     5     3    27 1   
     6     4     5 1   
     7     4    28 1   
     8     4    29 1   
     9     5     6 1   
    10     5     7 1   
    11     5    30 1   
    12     6     7 1   
    13     6    31 1   
    14     6    32 1   
    15     7    33 1   
    16     7    34 1   
    17     8     9 ar  
    18     8    11 ar  
    19     9    10 ar  
    20     9    35 1   
    21    10    13 ar  
    22    10    36 1   
    23    11    12 ar  
    24    11    37 1   
    25    12    13 ar  
    26    12    38 1   
    27    13    14 1   
    28    14    15 ar  
    29    14    19 ar  
    30    15    16 1   
    31    15    17 ar  
    32    16    39 1   
    33    16    40 1   
    34    16    41 1   
    35    17    18 ar  
    36    17    42 1   
    37    18    20 ar  
    38    18    43 1   
    39    19    20 ar  
    40    19    44 1   
    41    20    21 1   
    42    21    22 2   
    43    21    24 1   
    44    22    23 1   
    45    23    25 2   
    46    24    25 1   
    47    25    26 1   
    48    26    45 1   
    49    26    46 1   
    50    26    47 1   
@<TRIPOS>SUBSTRUCTURE
     1 GK4         1 TEMP              0 ****  ****    0 ROOT
