@<TRIPOS>MOLECULE
GK4
   47    50     1     0     0
SMALL
No Charge or Current Charge


@<TRIPOS>ATOM
      1 O2           4.9870    -1.5420    -1.4650 o          1 GK4      -0.605100
      2 C17          4.3940    -0.7950    -0.6980 c          1 GK4       0.610700
      3 N3           5.0640     0.1930    -0.0120 ns         1 GK4      -0.499900
      4 C18          6.4960     0.4510    -0.1270 c3         1 GK4       0.131000
      5 C19          6.9080     1.5610     0.8280 cx         1 GK4      -0.151700
      6 C21          8.1020     2.4380     0.5270 cx         1 GK4      -0.127400
      7 C20          6.7070     3.0150     0.4640 cx         1 GK4      -0.127400
      8 C14          2.9010    -0.9040    -0.4550 ca         1 GK4      -0.145600
      9 C13          2.2130    -0.0360     0.4280 ca         1 GK4      -0.073000
     10 C12          0.8280    -0.1690     0.6260 ca         1 GK4      -0.107500
     11 C15          2.1580    -1.8980    -1.1300 ca         1 GK4      -0.073000
     12 C16          0.7740    -2.0260    -0.9270 ca         1 GK4      -0.107500
     13 C11          0.0840    -1.1700    -0.0380 cp         1 GK4      -0.019000
     14 C9          -1.3890    -1.2910     0.1750 cp         1 GK4      -0.052000
     15 C7          -2.0030    -2.5050     0.5960 ca         1 GK4      -0.031300
     16 C8          -1.1940    -3.7630     0.9000 c3         1 GK4      -0.054800
     17 C6          -3.3990    -2.5550     0.7660 ca         1 GK4      -0.124000
     18 C5          -4.1950    -1.4220     0.5380 ca         1 GK4      -0.066000
     19 C10         -2.2090    -0.1560    -0.0390 ca         1 GK4      -0.049000
     20 C4          -3.6080    -0.2050     0.1360 ca         1 GK4      -0.149500
     21 C3          -4.4310     0.9880    -0.1020 cc         1 GK4       0.484500
     22 N2          -4.0200     2.1890    -0.4830 nd         1 GK4      -0.362000
     23 N1          -5.1470     2.9680    -0.5700 nd         1 GK4      -0.359000
     24 O1          -5.7760     0.9190     0.0720 os         1 GK4      -0.286000
     25 C2          -6.1570     2.1830    -0.2350 cc         1 GK4       0.421300
     26 C1          -7.6080     2.5480    -0.1700 c3         1 GK4      -0.120400
     27 HN3          4.5190     0.7810     0.6020 hn         1 GK4       0.316500
     28 H18          7.0490    -0.4670     0.1120 h1         1 GK4       0.056200
     29 H18A         6.7250     0.7350    -1.1630 h1         1 GK4       0.056200
     30 H19          6.7550     1.2910     1.8710 hc         1 GK4       0.084700
     31 H21          8.7360     2.7350     1.3600 hc         1 GK4       0.073450
     32 H21A         8.6290     2.2840    -0.4120 hc         1 GK4       0.073450
     33 H20          6.2980     3.2450    -0.5180 hc         1 GK4       0.073450
     34 H20A         6.4040     3.6980     1.2540 hc         1 GK4       0.073450
     35 H13          2.7330     0.7490     0.9710 ha         1 GK4       0.126000
     36 H12          0.3220     0.5070     1.3120 ha         1 GK4       0.121500
     37 H15          2.6520    -2.5780    -1.8220 ha         1 GK4       0.126000
     38 H16          0.2260    -2.7900    -1.4720 ha         1 GK4       0.121500
     39 H8          -0.9950    -4.3340    -0.0140 hc         1 GK4       0.050367
     40 H8A         -0.2320    -3.5210     1.3670 hc         1 GK4       0.050367
     41 H8B         -1.7270    -4.4250     1.5930 hc         1 GK4       0.050367
     42 H6          -3.8750    -3.4800     1.0850 ha         1 GK4       0.119000
     43 H5          -5.2720    -1.4970     0.6820 ha         1 GK4       0.127000
     44 H10         -1.7390     0.7720    -0.3580 ha         1 GK4       0.141000
     45 H1          -7.9970     2.4000     0.8430 hc         1 GK4       0.069700
     46 H1A         -7.7620     3.5970    -0.4450 hc         1 GK4       0.069700
     47 H1B         -8.1930     1.9250    -0.8560 hc         1 GK4       0.069700
@<TRIPOS>BOND
     1     1     2 2   
     2     2     3 1   
     3     2     8 1   
     4     3     4 1   
     5     3    27 1   
     6     4     5 1   
     7     4    28 1   
     8     4    29 1   
     9     5     6 1   
    10     5     7 1   
    11     5    30 1   
    12     6     7 1   
    13     6    31 1   
    14     6    32 1   
    15     7    33 1   
    16     7    34 1   
    17     8     9 ar  
    18     8    11 ar  
    19     9    10 ar  
    20     9    35 1   
    21    10    13 ar  
    22    10    36 1   
    23    11    12 ar  
    24    11    37 1   
    25    12    13 ar  
    26    12    38 1   
    27    13    14 1   
    28    14    15 ar  
    29    14    19 ar  
    30    15    16 1   
    31    15    17 ar  
    32    16    39 1   
    33    16    40 1   
    34    16    41 1   
    35    17    18 ar  
    36    17    42 1   
    37    18    20 ar  
    38    18    43 1   
    39    19    20 ar  
    40    19    44 1   
    41    20    21 1   
    42    21    22 2   
    43    21    24 1   
    44    22    23 1   
    45    23    25 2   
    46    24    25 1   
    47    25    26 1   
    48    26    45 1   
    49    26    46 1   
    50    26    47 1   
@<TRIPOS>SUBSTRUCTURE
     1 GK4         1 TEMP              0 ****  ****    0 ROOT
