@<TRIPOS>MOLECULE
GK5
   50    53     1     0     0
SMALL
No Charge or Current Charge


@<TRIPOS>ATOM
      1 C9           0.9570     3.5740     1.1080 c3         1 GK5      -0.053800
      2 C22          8.1380    -1.6570     0.2420 cx         1 GK5      -0.131900
      3 C21          7.5130    -2.0020    -1.0870 cx         1 GK5      -0.131900
      4 C18          6.6790    -2.0360     0.1700 cx         1 GK5       0.044700
      5 C26         -8.3840    -2.1750     0.5790 cx         1 GK5      -0.124900
      6 C25         -7.2800    -1.9440     1.5840 cx         1 GK5      -0.124900
      7 C24         -6.9610    -1.9840     0.1070 cx         1 GK5      -0.155700
      8 C4           1.8120     2.3500     0.7950 ca         1 GK5      -0.035300
      9 C8           3.1920     2.4180     1.0620 ca         1 GK5      -0.125000
     10 C13          4.0300     1.3150     0.8330 ca         1 GK5      -0.080000
     11 C7           3.5010     0.1050     0.3290 ca         1 GK5      -0.157600
     12 C12          4.3650    -1.1130     0.0690 c          1 GK5       0.613700
     13 O16          3.9030    -2.1570    -0.3730 o          1 GK5      -0.590100
     14 N15          5.7090    -0.9920     0.3560 ns         1 GK5      -0.482900
     15 C3           2.1160     0.0430     0.0590 ca         1 GK5      -0.045000
     16 C1           1.2580     1.1480     0.2740 cp         1 GK5      -0.054000
     17 C2          -0.1950     1.0090    -0.0450 cp         1 GK5      -0.017000
     18 C5          -0.8440     1.8970    -0.9340 ca         1 GK5      -0.108000
     19 C10         -2.2080     1.7520    -1.2370 ca         1 GK5      -0.074000
     20 C14         -2.9710     0.7090    -0.6660 ca         1 GK5      -0.145600
     21 C11         -2.3230    -0.1910     0.2160 ca         1 GK5      -0.074000
     22 C6          -0.9580    -0.0400     0.5150 ca         1 GK5      -0.108000
     23 C17         -4.4410     0.5830    -1.0150 c          1 GK5       0.610700
     24 O20         -5.0010     1.3590    -1.7790 o          1 GK5      -0.606100
     25 N19         -5.1310    -0.4530    -0.4280 ns         1 GK5      -0.502900
     26 C23         -6.5500    -0.7230    -0.6390 c3         1 GK5       0.135000
     27 H9           0.8060     4.1880     0.2120 hc         1 GK5       0.048700
     28 H9A         -0.0290     3.2900     1.4950 hc         1 GK5       0.048700
     29 H9B          1.4270     4.2100     1.8670 hc         1 GK5       0.048700
     30 H22A         8.3910    -0.6160     0.4280 hc         1 GK5       0.077700
     31 H21          7.3390    -1.1930    -1.7930 hc         1 GK5       0.077700
     32 H21A         7.7770    -2.9540    -1.5410 hc         1 GK5       0.077700
     33 H18          6.3810    -3.0080     0.5660 h1         1 GK5       0.085700
     34 H26         -8.8100    -3.1740     0.5140 hc         1 GK5       0.074200
     35 H26A        -9.0940    -1.3680     0.4120 hc         1 GK5       0.074200
     36 H25         -7.2500    -0.9820     2.0900 hc         1 GK5       0.074200
     37 H25A        -6.9650    -2.7880     2.1940 hc         1 GK5       0.074200
     38 H24         -6.4480    -2.8700    -0.2610 hc         1 GK5       0.081700
     39 H8           3.6230     3.3350     1.4590 ha         1 GK5       0.116000
     40 H13          5.0880     1.4210     1.0570 ha         1 GK5       0.114000
     41 HN15         6.0100    -0.0990     0.7230 hn         1 GK5       0.318500
     42 H3           1.6880    -0.8750    -0.3380 ha         1 GK5       0.138000
     43 H5          -0.2790     2.7000    -1.4000 ha         1 GK5       0.120000
     44 H10         -2.6710     2.4570    -1.9250 ha         1 GK5       0.124500
     45 H11         -2.8600    -1.0130     0.6810 ha         1 GK5       0.124500
     46 H6          -0.4830    -0.7410     1.1970 ha         1 GK5       0.120000
     47 HN19        -4.6170    -1.0570     0.1980 hn         1 GK5       0.318500
     48 H23         -6.7380    -0.8510    -1.7130 h1         1 GK5       0.054700
     49 H23A        -7.1340     0.1370    -0.2830 h1         1 GK5       0.054700
     50 H22          8.8240    -2.3770     0.6820 hc         1 GK5       0.077700
@<TRIPOS>BOND
     1     1     8 1   
     2     1    27 1   
     3     1    28 1   
     4     1    29 1   
     5     2     3 1   
     6     2     4 1   
     7     2    30 1   
     8     2    50 1   
     9     3     4 1   
    10     3    31 1   
    11     3    32 1   
    12     4    14 1   
    13     4    33 1   
    14     5     6 1   
    15     5     7 1   
    16     5    34 1   
    17     5    35 1   
    18     6     7 1   
    19     6    36 1   
    20     6    37 1   
    21     7    26 1   
    22     7    38 1   
    23     8     9 ar  
    24     8    16 ar  
    25     9    10 ar  
    26     9    39 1   
    27    10    11 ar  
    28    10    40 1   
    29    11    12 1   
    30    11    15 ar  
    31    12    13 2   
    32    12    14 1   
    33    14    41 1   
    34    15    16 ar  
    35    15    42 1   
    36    16    17 1   
    37    17    18 ar  
    38    17    22 ar  
    39    18    19 ar  
    40    18    43 1   
    41    19    20 ar  
    42    19    44 1   
    43    20    21 ar  
    44    20    23 1   
    45    21    22 ar  
    46    21    45 1   
    47    22    46 1   
    48    23    24 2   
    49    23    25 1   
    50    25    26 1   
    51    25    47 1   
    52    26    48 1   
    53    26    49 1   
@<TRIPOS>SUBSTRUCTURE
     1 GK5         1 TEMP              0 ****  ****    0 ROOT
