@<TRIPOS>MOLECULE
GK5
   50    53     1     0     0
SMALL
abcg2


@<TRIPOS>ATOM
      1 C9           1.0470     3.7820     0.8370 c3         1 GK5      -0.053800
      2 C22          7.7380    -1.9640     0.4560 cx         1 GK5      -0.131900
      3 C21          7.1010    -2.2980    -0.8570 cx         1 GK5      -0.131900
      4 C18          6.2660    -2.2050     0.3800 cx         1 GK5       0.044700
      5 C26         -8.0290    -2.4510     0.4810 cx         1 GK5      -0.124900
      6 C25         -6.7780    -2.5210     1.3030 cx         1 GK5      -0.124900
      7 C24         -6.7120    -2.1010    -0.1350 cx         1 GK5      -0.155700
      8 C4           1.8600     2.5510     0.5610 ca         1 GK5      -0.035300
      9 C8           3.2410     2.5890     0.7300 ca         1 GK5      -0.125000
     10 C13          4.0350     1.4730     0.5210 ca         1 GK5      -0.080000
     11 C7           3.4530     0.2710     0.1320 ca         1 GK5      -0.157600
     12 C12          4.2480    -0.9650    -0.1370 c          1 GK5       0.613700
     13 O16          3.8600    -1.8110    -0.9290 o          1 GK5      -0.590100
     14 N15          5.4040    -1.0810     0.5440 ns         1 GK5      -0.482900
     15 C3           2.0760     0.2250    -0.0530 ca         1 GK5      -0.045000
     16 C1           1.2740     1.3400     0.1590 cp         1 GK5      -0.054000
     17 C2          -0.1890     1.2030    -0.0280 cp         1 GK5      -0.017000
     18 C5          -0.8860     1.9930    -0.9410 ca         1 GK5      -0.108000
     19 C10         -2.2510     1.8380    -1.1140 ca         1 GK5      -0.074000
     20 C14         -2.9540     0.8770    -0.3910 ca         1 GK5      -0.145600
     21 C11         -2.2620     0.0880     0.5240 ca         1 GK5      -0.074000
     22 C6          -0.8970     0.2490     0.7010 ca         1 GK5      -0.108000
     23 C17         -4.4300     0.7670    -0.6050 c          1 GK5       0.610700
     24 O20         -5.0850     1.7230    -1.0020 o          1 GK5      -0.606100
     25 N19         -4.9830    -0.4240    -0.3410 ns         1 GK5      -0.502900
     26 C23         -6.4070    -0.6700    -0.4720 c3         1 GK5       0.135000
     27 H9           0.7380     4.2770    -0.0860 hc         1 GK5       0.048700
     28 H9A          0.1400     3.5520     1.3950 hc         1 GK5       0.048700
     29 H9B          1.6240     4.5040     1.4120 hc         1 GK5       0.048700
     30 H22A         8.0730    -0.9450     0.6090 hc         1 GK5       0.077700
     31 H21          7.0020    -1.5030    -1.5840 hc         1 GK5       0.077700
     32 H21A         7.2650    -3.2800    -1.2810 hc         1 GK5       0.077700
     33 H18          5.8960    -3.1380     0.7950 h1         1 GK5       0.085700
     34 H26         -8.4980    -3.3790     0.1820 hc         1 GK5       0.074200
     35 H26A        -8.7270    -1.6480     0.6840 hc         1 GK5       0.074200
     36 H25         -6.6250    -1.7600     2.0590 hc         1 GK5       0.074200
     37 H25A        -6.3930    -3.4970     1.5700 hc         1 GK5       0.074200
     38 H24         -6.3010    -2.8270    -0.8300 hc         1 GK5       0.081700
     39 H8           3.7080     3.5160     1.0400 ha         1 GK5       0.116000
     40 H13          5.1060     1.5630     0.6470 ha         1 GK5       0.114000
     41 HN15         5.5790    -0.4620     1.3190 hn         1 GK5       0.318500
     42 H3           1.6150    -0.7010    -0.3740 ha         1 GK5       0.138000
     43 H5          -0.3580     2.7290    -1.5340 ha         1 GK5       0.120000
     44 H10         -2.7710     2.4630    -1.8280 ha         1 GK5       0.124500
     45 H11         -2.7790    -0.6420     1.1340 ha         1 GK5       0.124500
     46 H6          -0.3810    -0.3620     1.4310 ha         1 GK5       0.120000
     47 HN19        -4.3970    -1.2120    -0.1190 hn         1 GK5       0.318500
     48 H23         -6.7350    -0.4440    -1.4910 h1         1 GK5       0.054700
     49 H23A        -6.9590    -0.0020     0.1950 h1         1 GK5       0.054700
     50 H22          8.3430    -2.7140     0.9470 hc         1 GK5       0.077700
@<TRIPOS>BOND
     1     1     8 1   
     2     1    27 1   
     3     1    28 1   
     4     1    29 1   
     5     2     3 1   
     6     2     4 1   
     7     2    30 1   
     8     2    50 1   
     9     3     4 1   
    10     3    31 1   
    11     3    32 1   
    12     4    14 1   
    13     4    33 1   
    14     5     6 1   
    15     5     7 1   
    16     5    34 1   
    17     5    35 1   
    18     6     7 1   
    19     6    36 1   
    20     6    37 1   
    21     7    26 1   
    22     7    38 1   
    23     8     9 ar  
    24     8    16 ar  
    25     9    10 ar  
    26     9    39 1   
    27    10    11 ar  
    28    10    40 1   
    29    11    12 1   
    30    11    15 ar  
    31    12    13 2   
    32    12    14 1   
    33    14    41 1   
    34    15    16 ar  
    35    15    42 1   
    36    16    17 1   
    37    17    18 ar  
    38    17    22 ar  
    39    18    19 ar  
    40    18    43 1   
    41    19    20 ar  
    42    19    44 1   
    43    20    21 ar  
    44    20    23 1   
    45    21    22 ar  
    46    21    45 1   
    47    22    46 1   
    48    23    24 2   
    49    23    25 1   
    50    25    26 1   
    51    25    47 1   
    52    26    48 1   
    53    26    49 1   
@<TRIPOS>SUBSTRUCTURE
     1 GK5         1 TEMP              0 ****  ****    0 ROOT
