@<TRIPOS>MOLECULE
GK6
   65    69     1     0     0
SMALL
abcg2


@<TRIPOS>ATOM
      1 O3           6.6630    -2.7600     0.6640 o          1 GK6      -0.606100
      2 C24          6.6540    -1.6090     0.2450 c          1 GK6       0.610700
      3 N4           7.7380    -1.0280    -0.2860 ns         1 GK6      -0.503900
      4 C25          9.0020    -1.7230    -0.4460 c3         1 GK6       0.135000
      5 C26         10.0710    -0.7550    -0.8640 cx         1 GK6      -0.156700
      6 C28         11.1790    -1.2260    -1.7520 cx         1 GK6      -0.125400
      7 C27         10.1320    -0.3000    -2.2920 cx         1 GK6      -0.125400
      8 C21          5.4180    -0.7700     0.3160 ca         1 GK6      -0.146600
      9 C20          4.4730    -1.0670     1.2940 ca         1 GK6      -0.075500
     10 C19          3.3110    -0.3230     1.3990 ca         1 GK6      -0.109500
     11 C22          5.1560     0.2680    -0.5750 ca         1 GK6      -0.075500
     12 C23          3.9870     1.0050    -0.4750 ca         1 GK6      -0.109500
     13 C18          3.0510     0.7280     0.5200 cp         1 GK6      -0.016000
     14 C17          1.7930     1.5010     0.6290 cp         1 GK6      -0.015000
     15 C2           1.7880     2.8980     0.7580 ca         1 GK6      -0.082300
     16 C1           3.0460     3.7180     0.8150 c3         1 GK6      -0.043800
     17 C16          0.5910     0.8040     0.6220 ca         1 GK6      -0.152000
     18 C5          -0.6390     1.4530     0.7240 ca         1 GK6      -0.025000
     19 C4          -0.6510     2.8410     0.8450 ca         1 GK6      -0.121000
     20 C3           0.5530     3.5270     0.8650 ca         1 GK6      -0.090000
     21 N1          -1.7790     0.6410     0.7050 ns         1 GK6      -0.138000
     22 C6          -3.0820     1.0040     0.7400 c          1 GK6       0.617700
     23 O1          -3.4750     2.1570     0.7560 o          1 GK6      -0.577100
     24 C7          -4.0490    -0.1430     0.7470 ca         1 GK6      -0.078600
     25 C11         -5.3120     0.0830     0.2350 ca         1 GK6      -0.178000
     26 C10         -6.2520    -0.9680     0.2380 ca         1 GK6       0.612900
     27 N2          -5.9480    -2.1530     0.7700 nb         1 GK6      -0.736000
     28 C9          -4.7400    -2.3470     1.2730 ca         1 GK6       0.386900
     29 C8          -3.7400    -1.3930     1.2850 ca         1 GK6      -0.210000
     30 N3          -7.5000    -0.8340    -0.3100 nh         1 GK6      -0.766300
     31 C15         -8.5450    -1.7720     0.0740 c6         1 GK6       0.175300
     32 C14         -9.6390    -1.8040    -0.9730 c6         1 GK6       0.143100
     33 O2         -10.1580    -0.5190    -1.2290 os         1 GK6      -0.442000
     34 C13         -9.1370     0.3270    -1.6980 c6         1 GK6       0.143100
     35 C12         -8.0030     0.4710    -0.6980 c6         1 GK6       0.175300
     36 HN4          7.7090    -0.0570    -0.5500 hn         1 GK6       0.318500
     37 H25          9.2760    -2.2050     0.4950 h1         1 GK6       0.055200
     38 H25A         8.9030    -2.5150    -1.1940 h1         1 GK6       0.055200
     39 H26         10.3370    -0.0200    -0.1110 hc         1 GK6       0.082700
     40 H28         12.1720    -0.8350    -1.5770 hc         1 GK6       0.073950
     41 H28A        11.1600    -2.2580    -2.0800 hc         1 GK6       0.073950
     42 H27          9.4040    -0.7090    -2.9840 hc         1 GK6       0.073950
     43 H27A        10.4060     0.7280    -2.4910 hc         1 GK6       0.073950
     44 H20          4.6500    -1.8780     1.9890 ha         1 GK6       0.124000
     45 H19          2.5990    -0.5550     2.1820 ha         1 GK6       0.120000
     46 H22          5.8430     0.4980    -1.3800 ha         1 GK6       0.124000
     47 H23          3.7990     1.7900    -1.1960 ha         1 GK6       0.120000
     48 H1           3.4500     3.9160    -0.1790 hc         1 GK6       0.043033
     49 H1A          2.8490     4.6850     1.2780 hc         1 GK6       0.043033
     50 H1B          3.8310     3.2260     1.3890 hc         1 GK6       0.043033
     51 H16          0.6120    -0.2760     0.5210 ha         1 GK6       0.114000
     52 H4          -1.5730     3.3920     0.9330 ha         1 GK6       0.149000
     53 H3           0.5230     4.6050     0.9750 ha         1 GK6       0.115000
     54 HN1         -1.5870    -0.3440     0.6090 hn         1 GK6       0.157000
     55 H11         -5.5550     1.0600    -0.1520 ha         1 GK6       0.144000
     56 H9          -4.5550    -3.3250     1.7030 h4         1 GK6       0.020100
     57 H8          -2.7880    -1.6220     1.7420 ha         1 GK6       0.124000
     58 H15         -8.1250    -2.7690     0.1760 h1         1 GK6       0.058950
     59 H15A        -8.9680    -1.4920     1.0480 h1         1 GK6       0.058950
     60 H14         -9.2500    -2.2510    -1.9000 h1         1 GK6       0.054950
     61 H14A       -10.4600    -2.4290    -0.6190 h1         1 GK6       0.054950
     62 H13         -8.7330    -0.0520    -2.6480 h1         1 GK6       0.054950
     63 H13A        -9.5750     1.3070    -1.8870 h1         1 GK6       0.054950
     64 H12         -8.3400     1.0380     0.1810 h1         1 GK6       0.058950
     65 H12A        -7.2240     1.0530    -1.1870 h1         1 GK6       0.058950
@<TRIPOS>BOND
     1     1     2 2   
     2     2     3 1   
     3     2     8 1   
     4     3     4 1   
     5     3    36 1   
     6     4     5 1   
     7     4    37 1   
     8     4    38 1   
     9     5     6 1   
    10     5     7 1   
    11     5    39 1   
    12     6     7 1   
    13     6    40 1   
    14     6    41 1   
    15     7    42 1   
    16     7    43 1   
    17     8     9 ar  
    18     8    11 ar  
    19     9    10 ar  
    20     9    44 1   
    21    10    13 ar  
    22    10    45 1   
    23    11    12 ar  
    24    11    46 1   
    25    12    13 ar  
    26    12    47 1   
    27    13    14 1   
    28    14    15 ar  
    29    14    17 ar  
    30    15    16 1   
    31    15    20 ar  
    32    16    48 1   
    33    16    49 1   
    34    16    50 1   
    35    17    18 ar  
    36    17    51 1   
    37    18    19 ar  
    38    18    21 1   
    39    19    20 ar  
    40    19    52 1   
    41    20    53 1   
    42    21    22 1   
    43    21    54 1   
    44    22    23 2   
    45    22    24 1   
    46    24    25 ar  
    47    24    29 ar  
    48    25    26 ar  
    49    25    55 1   
    50    26    27 ar  
    51    26    30 1   
    52    27    28 ar  
    53    28    29 ar  
    54    28    56 1   
    55    29    57 1   
    56    30    31 1   
    57    30    35 1   
    58    31    32 1   
    59    31    58 1   
    60    31    59 1   
    61    32    33 1   
    62    32    60 1   
    63    32    61 1   
    64    33    34 1   
    65    34    35 1   
    66    34    62 1   
    67    34    63 1   
    68    35    64 1   
    69    35    65 1   
@<TRIPOS>SUBSTRUCTURE
     1 GK6         1 TEMP              0 ****  ****    0 ROOT
