@<TRIPOS>MOLECULE
GK6
   65    69     1     0     0
SMALL
No Charge or Current Charge


@<TRIPOS>ATOM
      1 O3           7.0710    -2.3300     1.5450 o          1 GK6      -0.606100
      2 C24          6.9150    -1.3710     0.8010 c          1 GK6       0.610700
      3 N4           7.9130    -0.9700    -0.0580 ns         1 GK6      -0.503900
      4 C25          9.2110    -1.6260    -0.1760 c3         1 GK6       0.135000
      5 C26         10.0900    -0.8750    -1.1650 cx         1 GK6      -0.156700
      6 C28         11.1760    -1.5920    -1.9350 cx         1 GK6      -0.125400
      7 C27          9.9450    -1.0920    -2.6550 cx         1 GK6      -0.125400
      8 C21          5.6280    -0.5680     0.7750 ca         1 GK6      -0.146600
      9 C20          4.5670    -0.9270     1.6370 ca         1 GK6      -0.075500
     10 C19          3.3620    -0.2040     1.6360 ca         1 GK6      -0.109500
     11 C22          5.4430     0.5360    -0.0930 ca         1 GK6      -0.075500
     12 C23          4.2350     1.2550    -0.0870 ca         1 GK6      -0.109500
     13 C18          3.1770     0.9060     0.7830 cp         1 GK6      -0.016000
     14 C17          1.8860     1.6600     0.7850 cp         1 GK6      -0.015000
     15 C2           1.8230     3.0680     0.9840 ca         1 GK6      -0.082300
     16 C1           3.0670     3.9100     1.2540 c3         1 GK6      -0.043800
     17 C16          0.6760     0.9510     0.5910 ca         1 GK6      -0.152000
     18 C5          -0.5720     1.5980     0.5720 ca         1 GK6      -0.025000
     19 C4          -0.6130     2.9950     0.7560 ca         1 GK6      -0.121000
     20 C3           0.5740     3.7170     0.9610 ca         1 GK6      -0.090000
     21 N1          -1.7260     0.7910     0.3620 ns         1 GK6      -0.138000
     22 C6          -3.0830     1.0870     0.2980 c          1 GK6       0.617700
     23 O1          -3.5360     2.2190     0.4310 o          1 GK6      -0.577100
     24 C7          -4.0000    -0.1020     0.0480 ca         1 GK6      -0.078600
     25 C11         -5.3990     0.0760    -0.0350 ca         1 GK6      -0.178000
     26 C10         -6.2430    -1.0290    -0.2630 ca         1 GK6       0.612900
     27 N2          -5.7730    -2.2790    -0.4110 nb         1 GK6      -0.736000
     28 C9          -4.4410    -2.4670    -0.3360 ca         1 GK6       0.386900
     29 C8          -3.5270    -1.4250    -0.1120 ca         1 GK6      -0.210000
     30 N3          -7.6480    -0.9150    -0.3650 nh         1 GK6      -0.766300
     31 C15         -8.5540    -1.9660     0.2210 c6         1 GK6       0.175300
     32 C14         -9.9770    -1.9540    -0.4100 c6         1 GK6       0.143100
     33 O2         -10.5390    -0.6220    -0.3910 os         1 GK6      -0.442000
     34 C13         -9.7390     0.3210    -1.1380 c6         1 GK6       0.143100
     35 C12         -8.3030     0.4250    -0.5440 c6         1 GK6       0.175300
     36 HN4          7.7220    -0.1740    -0.6500 hn         1 GK6       0.318500
     37 H25          9.6970    -1.6470     0.8090 h1         1 GK6       0.055200
     38 H25A         9.0590    -2.6610    -0.5110 h1         1 GK6       0.055200
     39 H26         10.3150     0.1370    -0.8370 hc         1 GK6       0.082700
     40 H28         12.1110    -1.0630    -2.1030 hc         1 GK6       0.073950
     41 H28A        11.2800    -2.6660    -1.7970 hc         1 GK6       0.073950
     42 H27          9.2240    -1.8320    -2.9970 hc         1 GK6       0.073950
     43 H27A        10.0530    -0.2280    -3.3060 hc         1 GK6       0.073950
     44 H20          4.6720    -1.7730     2.3140 ha         1 GK6       0.124000
     45 H19          2.5630    -0.5000     2.3120 ha         1 GK6       0.120000
     46 H22          6.2220     0.8510    -0.7830 ha         1 GK6       0.124000
     47 H23          4.1120     2.0890    -0.7740 ha         1 GK6       0.120000
     48 H1           3.5570     4.2010     0.3170 hc         1 GK6       0.043033
     49 H1A          2.8200     4.8310     1.7950 hc         1 GK6       0.043033
     50 H1B          3.7970     3.3670     1.8660 hc         1 GK6       0.043033
     51 H16          0.7190    -0.1250     0.4410 ha         1 GK6       0.114000
     52 H4          -1.5500     3.5420     0.7480 ha         1 GK6       0.149000
     53 H3           0.5180     4.7930     1.1100 ha         1 GK6       0.115000
     54 HN1         -1.5150    -0.1890     0.2350 hn         1 GK6       0.157000
     55 H11         -5.8230     1.0660     0.0910 ha         1 GK6       0.144000
     56 H9          -4.0900    -3.4910    -0.4600 h4         1 GK6       0.020100
     57 H8          -2.4700    -1.6710    -0.0670 ha         1 GK6       0.124000
     58 H15         -8.1430    -2.9760     0.0800 h1         1 GK6       0.058950
     59 H15A        -8.6490    -1.8080     1.3050 h1         1 GK6       0.058950
     60 H14         -9.9270    -2.3100    -1.4490 h1         1 GK6       0.054950
     61 H14A       -10.6370    -2.6320     0.1500 h1         1 GK6       0.054950
     62 H13         -9.6850    -0.0040    -2.1880 h1         1 GK6       0.054950
     63 H13A       -10.2250     1.3060    -1.1130 h1         1 GK6       0.054950
     64 H12         -8.3590     0.9470     0.4230 h1         1 GK6       0.058950
     65 H12A        -7.7090     1.0550    -1.2220 h1         1 GK6       0.058950
@<TRIPOS>BOND
     1     1     2 2   
     2     2     3 1   
     3     2     8 1   
     4     3     4 1   
     5     3    36 1   
     6     4     5 1   
     7     4    37 1   
     8     4    38 1   
     9     5     6 1   
    10     5     7 1   
    11     5    39 1   
    12     6     7 1   
    13     6    40 1   
    14     6    41 1   
    15     7    42 1   
    16     7    43 1   
    17     8     9 ar  
    18     8    11 ar  
    19     9    10 ar  
    20     9    44 1   
    21    10    13 ar  
    22    10    45 1   
    23    11    12 ar  
    24    11    46 1   
    25    12    13 ar  
    26    12    47 1   
    27    13    14 1   
    28    14    15 ar  
    29    14    17 ar  
    30    15    16 1   
    31    15    20 ar  
    32    16    48 1   
    33    16    49 1   
    34    16    50 1   
    35    17    18 ar  
    36    17    51 1   
    37    18    19 ar  
    38    18    21 1   
    39    19    20 ar  
    40    19    52 1   
    41    20    53 1   
    42    21    22 1   
    43    21    54 1   
    44    22    23 2   
    45    22    24 1   
    46    24    25 ar  
    47    24    29 ar  
    48    25    26 ar  
    49    25    55 1   
    50    26    27 ar  
    51    26    30 1   
    52    27    28 ar  
    53    28    29 ar  
    54    28    56 1   
    55    29    57 1   
    56    30    31 1   
    57    30    35 1   
    58    31    32 1   
    59    31    58 1   
    60    31    59 1   
    61    32    33 1   
    62    32    60 1   
    63    32    61 1   
    64    33    34 1   
    65    34    35 1   
    66    34    62 1   
    67    34    63 1   
    68    35    64 1   
    69    35    65 1   
@<TRIPOS>SUBSTRUCTURE
     1 GK6         1 TEMP              0 ****  ****    0 ROOT
