@<TRIPOS>MOLECULE
GK7
  113   118     1     0     0
SMALL
No Charge or Current Charge


@<TRIPOS>ATOM
      1 C10        -13.0310   -15.7880    15.8130 ca         1 GK7       0.554300
      2 C13        -12.8680   -18.5870    16.8180 c5         1 GK7      -0.112400
      3 C20        -15.5500   -24.3600    16.0100 c3         1 GK7      -0.049200
      4 C21        -14.5910   -25.2740    15.2590 c2         1 GK7      -0.186200
      5 C22        -12.2720   -22.7050    14.3080 cx         1 GK7      -0.069600
      6 C24        -13.0760   -20.9280    15.8520 c          1 GK7       0.592100
      7 C01        -15.2090   -18.3400    17.3560 c5         1 GK7       0.101000
      8 C02        -17.4460   -20.2570    16.4650 c3         1 GK7       0.048700
      9 C03        -16.4610   -22.0650    18.0810 c3         1 GK7      -0.081400
     10 C04        -15.3170   -24.3700    17.5380 c3         1 GK7      -0.073400
     11 C05        -13.6980   -24.9160    14.3160 c2         1 GK7      -0.193200
     12 C06        -13.4610   -23.5260    13.8280 cx         1 GK7      -0.033500
     13 C07        -12.3510   -23.1760    12.8690 cx         1 GK7      -0.098400
     14 C08        -13.4970   -16.0130    13.2820 c3         1 GK7      -0.137400
     15 C09        -12.7080   -15.4520    14.4570 ca         1 GK7       0.317300
     16 C12        -13.9120   -17.4960    17.1950 c5         1 GK7       0.165300
     17 C14        -13.6480   -19.4780    15.8020 c5         1 GK7       0.030700
     18 C16        -16.1100   -20.0460    15.6900 c          1 GK7       0.595100
     19 C18        -17.5440   -21.6980    17.0330 c3         1 GK7      -0.086400
     20 C19        -16.3570   -23.5830    18.3860 c3         1 GK7      -0.066400
     21 C32         -8.1300   -20.9320    16.4920 cx         1 GK7      -0.396000
     22 C33         -6.6400   -20.6790    16.6340 cx         1 GK7      -0.080400
     23 C34         -7.3620   -20.2440    15.3770 cx         1 GK7      -0.080400
     24 C38        -20.8680   -19.3990    14.7850 c3         1 GK7       0.065700
     25 C41        -11.2980   -14.4370    16.5440 ca         1 GK7       0.308000
     26 C42        -10.5390   -13.8860    17.5900 ca         1 GK7      -0.205000
     27 C43         -9.4550   -13.0280    17.3190 ca         1 GK7       0.167100
     28 C46         -9.1310   -12.7200    15.9920 ca         1 GK7      -0.139000
     29 C47         -9.8800   -13.2610    14.9330 ca         1 GK7      -0.029000
     30 C48        -10.9650   -14.1200    15.1830 ca         1 GK7       0.165000
     31 C50         -9.1210   -20.1240    17.3410 c3         1 GK7      -0.044100
     32 C51        -20.7950   -17.9750    14.1060 c3         1 GK7      -0.049000
     33 C55        -25.4110   -21.2460    14.9600 c3         1 GK7       0.170900
     34 C56        -19.3770   -17.7110    13.5260 c3         1 GK7      -0.090767
     35 C57        -21.1280   -16.8500    15.1270 c3         1 GK7      -0.090767
     36 C58        -21.8080   -17.8900    12.9290 c3         1 GK7      -0.090767
     37 N15        -15.0330   -19.4030    16.3360 n          1 GK7      -0.393800
     38 N23        -12.6300   -21.3250    14.6050 ns         1 GK7      -0.476900
     39 N35        -18.5780   -20.0020    15.5510 ns         1 GK7      -0.485900
     40 N39        -22.2240   -19.6920    15.3050 ns         1 GK7      -0.487900
     41 N40        -12.3310   -15.2610    16.8560 nb         1 GK7      -0.755000
     42 N49        -11.6730   -14.6260    14.1380 nb         1 GK7      -0.611000
     43 O11        -14.1240   -16.6120    16.0500 os         1 GK7      -0.451300
     44 O17        -15.9630   -20.4950    14.5590 o          1 GK7      -0.626100
     45 O25        -13.0020   -21.6470    16.8390 o          1 GK7      -0.566100
     46 O30         -9.1210   -23.2510    17.5260 o          1 GK7      -0.516000
     47 O31         -7.7510   -23.3890    15.3880 o          1 GK7      -0.516000
     48 O44         -8.6840   -12.4670    18.3170 os         1 GK7      -0.334100
     49 O53        -23.0370   -20.9690    13.5770 o          1 GK7      -0.545000
     50 O54        -24.2840   -20.4970    15.4510 os         1 GK7      -0.454100
     51 S29         -8.7300   -22.6900    16.2280 s6         1 GK7       1.255800
     52 H132       -12.5860   -19.1490    17.7170 hc         1 GK7       0.076700
     53 H131       -11.9380   -18.1860    16.4000 hc         1 GK7       0.076700
     54 H201       -15.4620   -23.3290    15.6530 hc         1 GK7       0.048200
     55 H202       -16.5810   -24.6740    15.8050 hc         1 GK7       0.048200
     56 H211       -14.6780   -26.3250    15.5400 ha         1 GK7       0.168000
     57 H011       -16.1060   -17.7300    17.1790 h1         1 GK7       0.080700
     58 H012       -15.2780   -18.7740    18.3620 h1         1 GK7       0.080700
     59 H021       -17.4970   -19.5420    17.2950 h1         1 GK7       0.088700
     60 H032       -15.4780   -21.7020    17.7680 hc         1 GK7       0.047700
     61 H031       -16.6970   -21.5330    19.0120 hc         1 GK7       0.047700
     62 H041       -15.3150   -25.4110    17.8840 hc         1 GK7       0.047200
     63 H042       -14.3140   -23.9770    17.7450 hc         1 GK7       0.047200
     64 H051       -13.0750   -25.6840    13.8520 ha         1 GK7       0.188000
     65 H061       -14.3890   -22.9810    13.6610 hc         1 GK7       0.101700
     66 H071       -12.5590   -22.4370    12.1000 hc         1 GK7       0.086200
     67 H072       -11.6830   -23.9750    12.5540 hc         1 GK7       0.086200
     68 H083       -13.1750   -15.5810    12.3270 hc         1 GK7       0.058700
     69 H082       -13.3720   -17.1000    13.2150 hc         1 GK7       0.058700
     70 H081       -14.5670   -15.8050    13.3960 hc         1 GK7       0.058700
     71 H121       -13.6770   -16.9300    18.1080 h1         1 GK7       0.090700
     72 H141       -13.6000   -19.0750    14.7810 h1         1 GK7       0.072700
     73 H181       -18.5290   -21.8340    17.4970 hc         1 GK7       0.060200
     74 H182       -17.5090   -22.4000    16.1940 hc         1 GK7       0.060200
     75 H191       -17.3440   -24.0510    18.2860 hc         1 GK7       0.037700
     76 H192       -16.0740   -23.6990    19.4390 hc         1 GK7       0.037700
     77 H332        -5.9580   -21.5240    16.5560 hc         1 GK7       0.087700
     78 H331        -6.3120   -19.9020    17.3210 hc         1 GK7       0.087700
     79 H342        -7.1580   -20.7990    14.4630 hc         1 GK7       0.087700
     80 H341        -7.5140   -19.1770    15.2280 hc         1 GK7       0.087700
     81 H381       -20.6270   -20.1530    14.0250 h1         1 GK7       0.069700
     82 H421       -10.8110   -14.1410    18.6090 ha         1 GK7       0.134000
     83 H452        -8.2010   -12.1770    20.3290 h1         1 GK7       0.045367
     84 H453        -9.9330   -12.3840    19.9990 h1         1 GK7       0.045367
     85 H451        -8.8350   -13.7890    19.9380 h1         1 GK7       0.045367
     86 H461        -8.2950   -12.0580    15.7810 ha         1 GK7       0.135000
     87 H471        -9.6170   -13.0130    13.9080 ha         1 GK7       0.136000
     88 H501        -8.7760   -19.0920    17.4850 hc         1 GK7       0.054367
     89 H502       -10.1090   -20.0740    16.8680 hc         1 GK7       0.054367
     90 H503        -9.2470   -20.5670    18.3360 hc         1 GK7       0.054367
     91 H551       -26.2340   -21.2160    15.6840 h1         1 GK7       0.048700
     92 H553       -25.7750   -20.8280    14.0130 h1         1 GK7       0.048700
     93 H552       -25.1400   -22.2970    14.7950 h1         1 GK7       0.048700
     94 H563       -18.6250   -17.6190    14.3180 hc         1 GK7       0.041367
     95 H562       -19.0710   -18.5180    12.8490 hc         1 GK7       0.041367
     96 H561       -19.3560   -16.7730    12.9560 hc         1 GK7       0.041367
     97 H572       -20.4170   -16.8440    15.9610 hc         1 GK7       0.041367
     98 H573       -21.0830   -15.8640    14.6470 hc         1 GK7       0.041367
     99 H571       -22.1360   -16.9700    15.5410 hc         1 GK7       0.041367
    100 H581       -22.8430   -17.9680    13.2810 hc         1 GK7       0.041367
    101 H583       -21.7160   -16.9340    12.3990 hc         1 GK7       0.041367
    102 H582       -21.6330   -18.6940    12.2040 hc         1 GK7       0.041367
    103 H231       -12.7430   -20.6620    13.8460 hn         1 GK7       0.322500
    104 H1         -10.1550   -21.5350    14.9270 hn         1 GK7       0.335500
    105 H351       -18.4210   -20.1290    14.5560 hn         1 GK7       0.328500
    106 H391       -22.4760   -19.3490    16.2240 hn         1 GK7       0.337500
    107 C26        -11.1240   -23.3220    15.1310 c          1 GK7       0.681100
    108 C36        -19.8380   -19.5990    15.9420 c          1 GK7       0.595100
    109 C45         -8.9280   -12.7190    19.7120 c3         1 GK7       0.145900
    110 C52        -23.1740   -20.4340    14.6650 c          1 GK7       0.638100
    111 N28        -10.0970   -22.4590    15.3130 ns         1 GK7      -0.573300
    112 O27        -11.1070   -24.4670    15.5590 o          1 GK7      -0.537100
    113 O37        -20.1180   -19.4380    17.1240 o          1 GK7      -0.609100
@<TRIPOS>BOND
     1     1    15 ar  
     2     1    41 ar  
     3     1    43 1   
     4     2    16 1   
     5     2    17 1   
     6     2    52 1   
     7     2    53 1   
     8     3     4 1   
     9     3    10 1   
    10     3    54 1   
    11     3    55 1   
    12     4    11 2   
    13     4    56 1   
    14     5    12 1   
    15     5    13 1   
    16     5    38 1   
    17     5   107 1   
    18     6    17 1   
    19     6    38 1   
    20     6    45 2   
    21     7    16 1   
    22     7    37 1   
    23     7    57 1   
    24     7    58 1   
    25     8    18 1   
    26     8    19 1   
    27     8    39 1   
    28     8    59 1   
    29     9    19 1   
    30     9    20 1   
    31     9    60 1   
    32     9    61 1   
    33    10    20 1   
    34    10    62 1   
    35    10    63 1   
    36    11    12 1   
    37    11    64 1   
    38    12    13 1   
    39    12    65 1   
    40    13    66 1   
    41    13    67 1   
    42    14    15 1   
    43    14    68 1   
    44    14    69 1   
    45    14    70 1   
    46    15    42 ar  
    47    16    43 1   
    48    16    71 1   
    49    17    37 1   
    50    17    72 1   
    51    18    37 1   
    52    18    44 2   
    53    19    73 1   
    54    19    74 1   
    55    20    75 1   
    56    20    76 1   
    57    21    22 1   
    58    21    23 1   
    59    21    31 1   
    60    21    51 1   
    61    22    23 1   
    62    22    77 1   
    63    22    78 1   
    64    23    79 1   
    65    23    80 1   
    66    24    32 1   
    67    24    40 1   
    68    24    81 1   
    69    24   108 1   
    70    25    26 ar  
    71    25    30 ar  
    72    25    41 ar  
    73    26    27 ar  
    74    26    82 1   
    75    27    28 ar  
    76    27    48 1   
    77    28    29 ar  
    78    28    86 1   
    79    29    30 ar  
    80    29    87 1   
    81    30    42 ar  
    82    31    88 1   
    83    31    89 1   
    84    31    90 1   
    85    32    34 1   
    86    32    35 1   
    87    32    36 1   
    88    33    50 1   
    89    33    91 1   
    90    33    92 1   
    91    33    93 1   
    92    34    94 1   
    93    34    95 1   
    94    34    96 1   
    95    35    97 1   
    96    35    98 1   
    97    35    99 1   
    98    36   100 1   
    99    36   101 1   
   100    36   102 1   
   101    38   103 1   
   102    39   105 1   
   103    39   108 1   
   104    40   106 1   
   105    40   110 1   
   106    46    51 2   
   107    47    51 2   
   108    48   109 1   
   109    49   110 2   
   110    50   110 1   
   111    51   111 1   
   112    83   109 1   
   113    84   109 1   
   114    85   109 1   
   115   104   111 1   
   116   107   111 1   
   117   107   112 2   
   118   108   113 2   
@<TRIPOS>SUBSTRUCTURE
     1 GK7         1 TEMP              0 ****  ****    0 ROOT
