@<TRIPOS>MOLECULE
GK7
  113   118     1     0     0
SMALL
bcc


@<TRIPOS>ATOM
      1 C10        -13.9320   -15.8420    16.0070 ca         1 GK7       0.554300
      2 C13        -13.1030   -18.7640    16.5310 c5         1 GK7      -0.112400
      3 C20        -15.2740   -24.8450    15.8480 c3         1 GK7      -0.049200
      4 C21        -14.1290   -25.5730    15.2160 c2         1 GK7      -0.136200
      5 C22        -12.0930   -22.6740    14.1050 cx         1 GK7      -0.069600
      6 C24        -13.2080   -21.0620    15.4890 c          1 GK7       0.659100
      7 C01        -15.3420   -18.9060    17.3060 c5         1 GK7       0.101000
      8 C02        -17.3980   -20.8600    16.3560 c3         1 GK7       0.048700
      9 C03        -16.4700   -22.6970    17.8490 c3         1 GK7      -0.081400
     10 C04        -15.1820   -24.8740    17.3750 c3         1 GK7      -0.073400
     11 C05        -13.2050   -25.0800    14.3900 c2         1 GK7      -0.143200
     12 C06        -13.2050   -23.6990    13.8700 cx         1 GK7      -0.033500
     13 C07        -12.3490   -23.2520    12.7400 cx         1 GK7      -0.098400
     14 C08        -15.6800   -15.2310    14.2560 c3         1 GK7      -0.137400
     15 C09        -14.4300   -14.9270    15.0130 ca         1 GK7       0.317300
     16 C12        -14.2100   -17.9120    17.1340 c5         1 GK7       0.142100
     17 C14        -13.8520   -19.6850    15.5630 c5         1 GK7       0.030700
     18 C16        -16.0730   -20.6310    15.6280 c          1 GK7       0.662100
     19 C18        -17.4920   -22.3270    16.7760 c3         1 GK7      -0.086400
     20 C19        -16.3490   -24.2060    18.1020 c3         1 GK7      -0.066400
     21 C32         -8.9340   -20.8170    17.3620 cx         1 GK7      -0.285200
     22 C33         -7.6530   -20.0830    17.6250 cx         1 GK7      -0.080400
     23 C34         -8.6440   -19.5150    16.6680 cx         1 GK7      -0.080400
     24 C38        -20.0850   -19.0780    14.3450 c3         1 GK7       0.065700
     25 C41        -12.1700   -14.4880    16.4420 ca         1 GK7       0.373300
     26 C42        -10.9880   -14.2210    17.1560 ca         1 GK7      -0.288300
     27 C43        -10.2960   -13.0550    16.9120 ca         1 GK7       0.167100
     28 C46        -10.7730   -12.1320    15.9490 ca         1 GK7      -0.157000
     29 C47        -11.9180   -12.3890    15.2510 ca         1 GK7      -0.112300
     30 C48        -12.6440   -13.5760    15.4810 ca         1 GK7       0.230300
     31 C50         -9.9950   -20.9150    18.4270 c3         1 GK7      -0.044100
     32 C51        -19.4860   -18.2650    13.1650 c3         1 GK7      -0.049000
     33 C55        -23.8970   -18.7490    17.1900 c3         1 GK7       0.147700
     34 C56        -18.2160   -18.9550    12.6620 c3         1 GK7      -0.090767
     35 C57        -19.1370   -16.8260    13.5530 c3         1 GK7      -0.090767
     36 C58        -20.5120   -18.2490    12.0270 c3         1 GK7      -0.090767
     37 N15        -15.1730   -19.7940    16.1620 n          1 GK7      -0.460800
     38 N23        -12.5370   -21.3430    14.3480 ns         1 GK7      -0.543900
     39 N35        -18.4800   -20.5040    15.4680 ns         1 GK7      -0.552900
     40 N39        -21.2630   -18.4340    14.8630 ns         1 GK7      -0.554900
     41 N40        -12.8540   -15.6350    16.6860 nb         1 GK7      -0.755000
     42 N49        -13.7780   -13.8290    14.7800 nb         1 GK7      -0.611000
     43 O11        -14.6660   -16.9340    16.1970 os         1 GK7      -0.428100
     44 O17        -15.8410   -21.2330    14.5860 o          1 GK7      -0.626100
     45 O25        -13.2440   -21.8350    16.4260 o          1 GK7      -0.566100
     46 O30         -8.9350   -23.4560    17.1790 o          1 GK7      -0.586800
     47 O31         -7.6460   -22.1630    15.4750 o          1 GK7      -0.586800
     48 O44         -9.1610   -12.7000    17.5310 os         1 GK7      -0.310900
     49 O53        -21.8200   -20.1450    16.2380 o          1 GK7      -0.594000
     50 O54        -23.0150   -18.2330    16.1980 os         1 GK7      -0.430900
     51 S29         -8.7930   -22.2680    16.3600 s6         1 GK7       1.286600
     52 H132       -12.6450   -19.3410    17.3370 hc         1 GK7       0.076700
     53 H131       -12.3210   -18.1870    16.0420 hc         1 GK7       0.076700
     54 H201       -15.3180   -23.8110    15.5040 hc         1 GK7       0.048200
     55 H202       -16.2150   -25.3190    15.5430 hc         1 GK7       0.048200
     56 H211       -14.0400   -26.6210    15.4890 ha         1 GK7       0.118000
     57 H011       -16.3160   -18.4210    17.3020 h1         1 GK7       0.080700
     58 H012       -15.2190   -19.4390    18.2520 h1         1 GK7       0.080700
     59 H021       -17.4820   -20.2370    17.2460 h1         1 GK7       0.088700
     60 H032       -15.4820   -22.3070    17.5870 hc         1 GK7       0.047700
     61 H031       -16.7540   -22.1870    18.7740 hc         1 GK7       0.047700
     62 H041       -15.1080   -25.9140    17.7070 hc         1 GK7       0.047200
     63 H042       -14.2500   -24.3860    17.6740 hc         1 GK7       0.047200
     64 H051       -12.4240   -25.7420    14.0360 ha         1 GK7       0.138000
     65 H061       -14.1660   -23.2020    13.9140 hc         1 GK7       0.101700
     66 H071       -12.7720   -22.5860    11.9980 hc         1 GK7       0.086200
     67 H072       -11.6010   -23.9350    12.3570 hc         1 GK7       0.086200
     68 H083       -15.8770   -14.4410    13.5360 hc         1 GK7       0.058700
     69 H082       -15.6060   -16.1790    13.7220 hc         1 GK7       0.058700
     70 H081       -16.5380   -15.3120    14.9260 hc         1 GK7       0.058700
     71 H121       -13.9270   -17.4390    18.0740 h1         1 GK7       0.090700
     72 H141       -13.9170   -19.2350    14.5670 h1         1 GK7       0.072700
     73 H181       -18.5010   -22.5050    17.1570 hc         1 GK7       0.060200
     74 H182       -17.3790   -22.9640    15.8950 hc         1 GK7       0.060200
     75 H191       -17.2850   -24.7060    17.8310 hc         1 GK7       0.037700
     76 H192       -16.2170   -24.3810    19.1720 hc         1 GK7       0.037700
     77 H332        -6.7270   -20.4720    17.2260 hc         1 GK7       0.087700
     78 H331        -7.5670   -19.6440    18.6110 hc         1 GK7       0.087700
     79 H342        -8.3890   -19.5180    15.6150 hc         1 GK7       0.087700
     80 H341        -9.2520   -18.6740    16.9780 hc         1 GK7       0.087700
     81 H381       -20.3710   -20.0540    13.9370 h1         1 GK7       0.069700
     82 H421       -10.6580   -14.9540    17.8800 ha         1 GK7       0.152000
     83 H452        -7.7110   -13.1070    18.8670 h1         1 GK7       0.045367
     84 H453        -9.3060   -13.7200    19.3430 h1         1 GK7       0.045367
     85 H451        -8.3730   -14.5500    18.0780 h1         1 GK7       0.045367
     86 H461       -10.2170   -11.2190    15.7750 ha         1 GK7       0.153000
     87 H471       -12.2850   -11.6860    14.5140 ha         1 GK7       0.154000
     88 H501       -10.0650   -19.9600    18.9460 hc         1 GK7       0.054367
     89 H502       -10.9780   -21.1410    18.0120 hc         1 GK7       0.054367
     90 H503        -9.7490   -21.6770    19.1650 hc         1 GK7       0.054367
     91 H551       -24.6430   -17.9770    17.3550 h1         1 GK7       0.048700
     92 H553       -24.3930   -19.6600    16.8550 h1         1 GK7       0.048700
     93 H552       -23.3770   -18.9490    18.1270 h1         1 GK7       0.048700
     94 H563       -17.4040   -18.9200    13.3890 hc         1 GK7       0.041367
     95 H562       -18.3930   -20.0010    12.4080 hc         1 GK7       0.041367
     96 H561       -17.8630   -18.4510    11.7610 hc         1 GK7       0.041367
     97 H572       -18.3830   -16.7820    14.3380 hc         1 GK7       0.041367
     98 H573       -18.7360   -16.3050    12.6820 hc         1 GK7       0.041367
     99 H571       -19.9990   -16.2470    13.8900 hc         1 GK7       0.041367
    100 H581       -21.4330   -17.7350    12.3050 hc         1 GK7       0.041367
    101 H583       -20.1010   -17.7320    11.1590 hc         1 GK7       0.041367
    102 H582       -20.7760   -19.2620    11.7170 hc         1 GK7       0.041367
    103 H231       -12.5780   -20.6970    13.5740 hn         1 GK7       0.322500
    104 H1         -10.4790   -21.1250    15.2650 hn         1 GK7       0.335500
    105 H351       -18.7280   -21.1690    14.7510 hn         1 GK7       0.328500
    106 H391       -21.4400   -17.4680    14.6420 hn         1 GK7       0.337500
    107 C26        -10.8410   -23.0990    14.7980 c          1 GK7       0.748100
    108 C36        -19.0740   -19.3000    15.4730 c          1 GK7       0.662100
    109 C45         -8.6220   -13.5750    18.5040 c3         1 GK7       0.122700
    110 C52        -22.0170   -19.0270    15.8070 c          1 GK7       0.754100
    111 N28        -10.2060   -22.0800    15.4650 ns         1 GK7      -0.640300
    112 O27        -10.4120   -24.2290    14.7700 o          1 GK7      -0.537100
    113 O37        -18.8310   -18.4330    16.2970 o          1 GK7      -0.609100
@<TRIPOS>BOND
     1     1    15 ar  
     2     1    41 ar  
     3     1    43 1   
     4     2    16 1   
     5     2    17 1   
     6     2    52 1   
     7     2    53 1   
     8     3     4 1   
     9     3    10 1   
    10     3    54 1   
    11     3    55 1   
    12     4    11 2   
    13     4    56 1   
    14     5    12 1   
    15     5    13 1   
    16     5    38 1   
    17     5   107 1   
    18     6    17 1   
    19     6    38 1   
    20     6    45 2   
    21     7    16 1   
    22     7    37 1   
    23     7    57 1   
    24     7    58 1   
    25     8    18 1   
    26     8    19 1   
    27     8    39 1   
    28     8    59 1   
    29     9    19 1   
    30     9    20 1   
    31     9    60 1   
    32     9    61 1   
    33    10    20 1   
    34    10    62 1   
    35    10    63 1   
    36    11    12 1   
    37    11    64 1   
    38    12    13 1   
    39    12    65 1   
    40    13    66 1   
    41    13    67 1   
    42    14    15 1   
    43    14    68 1   
    44    14    69 1   
    45    14    70 1   
    46    15    42 ar  
    47    16    43 1   
    48    16    71 1   
    49    17    37 1   
    50    17    72 1   
    51    18    37 1   
    52    18    44 2   
    53    19    73 1   
    54    19    74 1   
    55    20    75 1   
    56    20    76 1   
    57    21    22 1   
    58    21    23 1   
    59    21    31 1   
    60    21    51 1   
    61    22    23 1   
    62    22    77 1   
    63    22    78 1   
    64    23    79 1   
    65    23    80 1   
    66    24    32 1   
    67    24    40 1   
    68    24    81 1   
    69    24   108 1   
    70    25    26 ar  
    71    25    30 ar  
    72    25    41 ar  
    73    26    27 ar  
    74    26    82 1   
    75    27    28 ar  
    76    27    48 1   
    77    28    29 ar  
    78    28    86 1   
    79    29    30 ar  
    80    29    87 1   
    81    30    42 ar  
    82    31    88 1   
    83    31    89 1   
    84    31    90 1   
    85    32    34 1   
    86    32    35 1   
    87    32    36 1   
    88    33    50 1   
    89    33    91 1   
    90    33    92 1   
    91    33    93 1   
    92    34    94 1   
    93    34    95 1   
    94    34    96 1   
    95    35    97 1   
    96    35    98 1   
    97    35    99 1   
    98    36   100 1   
    99    36   101 1   
   100    36   102 1   
   101    38   103 1   
   102    39   105 1   
   103    39   108 1   
   104    40   106 1   
   105    40   110 1   
   106    46    51 2   
   107    47    51 2   
   108    48   109 1   
   109    49   110 2   
   110    50   110 1   
   111    51   111 1   
   112    83   109 1   
   113    84   109 1   
   114    85   109 1   
   115   104   111 1   
   116   107   111 1   
   117   107   112 2   
   118   108   113 2   
@<TRIPOS>SUBSTRUCTURE
     1 GK7         1 TEMP              0 ****  ****    0 ROOT
