@<TRIPOS>MOLECULE
GKA
  112   117     1     0     0
SMALL
No Charge or Current Charge


@<TRIPOS>ATOM
      1 C10        -26.8080    -0.8760    -1.1820 ca         1 GKA       0.554300
      2 C13        -27.4730    -0.8120    -4.8640 c5         1 GKA       0.029700
      3 C15        -31.3960    -1.9860    -7.0580 c3         1 GKA      -0.087400
      4 C17        -29.4090    -0.9800    -9.7280 c3         1 GKA      -0.049200
      5 C20        -26.9140    -0.8540    -6.3190 c          1 GKA       0.592100
      6 C22        -21.9820    -1.5510    -6.3460 cx         1 GKA      -0.398000
      7 C24        -20.4920    -1.7020    -6.0940 cx         1 GKA      -0.080400
      8 C26        -34.6880     0.3160    -4.7810 c3         1 GKA       0.049700
      9 C28        -24.3040    -2.7130     0.6480 ca         1 GKA      -0.204000
     10 C01        -29.0460    -2.3530    -3.7230 c5         1 GKA       0.101000
     11 C02        -31.2860    -1.4170    -5.6170 c3         1 GKA       0.048700
     12 C03        -30.3260    -3.0450    -7.4310 c3         1 GKA      -0.080400
     13 C04        -29.1910    -2.5100    -9.7440 c3         1 GKA      -0.073400
     14 C05        -27.5460     0.6990   -10.2900 c2         1 GKA      -0.194200
     15 C06        -27.2990     1.1830    -8.8990 cx         1 GKA      -0.033500
     16 C07        -26.1830     2.1370    -8.5520 cx         1 GKA      -0.097400
     17 C08        -27.2480     1.6630    -1.3560 c3         1 GKA      -0.138400
     18 C09        -26.4640     0.4690    -0.8280 ca         1 GKA       0.317300
     19 C11        -27.7360    -2.2240    -2.8940 c5         1 GKA       0.165300
     20 C12        -26.6980    -1.8500    -3.9930 c5         1 GKA      -0.111400
     21 C14        -29.9370    -0.6620    -5.4100 c          1 GKA       0.595100
     22 C16        -30.2330    -3.3500    -8.9500 c3         1 GKA      -0.066400
     23 C18        -28.4480    -0.2360   -10.6450 c2         1 GKA      -0.186200
     24 C19        -26.1050     0.6950    -8.0880 cx         1 GKA      -0.069600
     25 C23        -21.2110    -0.4500    -5.6390 cx         1 GKA      -0.080400
     26 C25        -33.6720    -0.8560    -4.9680 c          1 GKA       0.600100
     27 C27        -25.0600    -1.6490     0.1280 ca         1 GKA       0.307000
     28 C29        -23.2020    -2.4680     1.4920 ca         1 GKA       0.167100
     29 C30        -22.6960    -4.8710     1.7520 c3         1 GKA       0.145900
     30 C31        -22.8580    -1.1490     1.8170 ca         1 GKA      -0.139000
     31 C32        -23.6050    -0.0740     1.3070 ca         1 GKA      -0.029000
     32 C33        -24.7070    -0.2980     0.4620 ca         1 GKA       0.166000
     33 C34        -22.9760    -2.4100    -5.5530 c3         1 GKA      -0.044100
     34 C35        -34.6120     1.0040    -3.3630 c3         1 GKA      -0.049000
     35 C37        -33.1870     1.5660    -3.0950 c3         1 GKA      -0.089433
     36 C38        -34.9670    -0.0030    -2.2320 c3         1 GKA      -0.089433
     37 C39        -35.6080     2.1960    -3.2940 c3         1 GKA      -0.089433
     38 C56        -38.3160    -0.2920    -5.9800 c3         1 GKA      -0.176100
     39 N40        -28.8650    -1.3280    -4.7810 n          1 GKA      -0.393800
     40 N41        -26.4580     0.3910    -6.7090 ns         1 GKA      -0.477900
     41 N42        -23.9400    -0.3360    -7.8540 ns         1 GKA      -0.573300
     42 N43        -32.4040    -0.4850    -5.3650 ns         1 GKA      -0.485900
     43 N44        -36.0530    -0.1900    -5.0740 ns         1 GKA      -0.494900
     44 N45        -26.1110    -1.9360    -0.6830 nb         1 GKA      -0.754000
     45 N46        -25.4120     0.7630    -0.0140 nb         1 GKA      -0.611000
     46 O47        -27.9170    -1.0870    -1.9930 os         1 GKA      -0.451300
     47 O48        -29.7780     0.4720    -5.8510 o          1 GKA      -0.626100
     48 O50        -22.9790    -2.5420    -8.6810 o          1 GKA      -0.516000
     49 O51        -21.5950    -0.4110    -8.7850 o          1 GKA      -0.516000
     50 O52        -33.9700    -2.0340    -4.8040 o          1 GKA      -0.613100
     51 O53        -22.4320    -3.4820     2.0230 os         1 GKA      -0.334100
     52 O54        -36.7800     1.5170    -6.4040 o          1 GKA      -0.608100
     53 O57        -24.9460    -0.5350    -9.8690 o          1 GKA      -0.540100
     54 S55        -22.5800    -1.2560    -8.0990 s6         1 GKA       1.256800
     55 H131       -27.4060     0.2020    -4.4490 h1         1 GKA       0.072700
     56 H151       -31.3560    -1.1470    -7.7610 hc         1 GKA       0.060700
     57 H152       -32.3860    -2.4400    -7.1890 hc         1 GKA       0.060700
     58 H172       -29.3110    -0.6270    -8.6970 hc         1 GKA       0.048200
     59 H171       -30.4400    -0.7650   -10.0360 hc         1 GKA       0.048200
     60 H241       -20.1670    -2.4030    -5.3280 hc         1 GKA       0.087950
     61 H242       -19.8100    -1.6120    -6.9370 hc         1 GKA       0.087950
     62 H261       -34.4310     1.0660    -5.5400 h1         1 GKA       0.068700
     63 H281       -24.5900    -3.7240     0.3800 ha         1 GKA       0.134000
     64 H011       -29.9310    -2.1640    -3.1010 h1         1 GKA       0.080700
     65 H012       -29.1390    -3.3540    -4.1650 h1         1 GKA       0.080700
     66 H021       -31.3490    -2.2440    -4.9000 h1         1 GKA       0.088700
     67 H031       -30.5680    -3.9740    -6.8980 hc         1 GKA       0.047200
     68 H032       -29.3370    -2.7430    -7.0740 hc         1 GKA       0.047200
     69 H041       -29.2010    -2.8550   -10.7850 hc         1 GKA       0.047200
     70 H042       -28.1880    -2.7280    -9.3580 hc         1 GKA       0.047200
     71 H051       -26.9230     1.1600   -11.0600 ha         1 GKA       0.189000
     72 H061       -28.2220     1.3510    -8.3480 hc         1 GKA       0.102700
     73 H071       -25.5200     2.4530    -9.3550 hc         1 GKA       0.086200
     74 H072       -26.3840     2.9030    -7.8080 hc         1 GKA       0.086200
     75 H082       -26.8990     2.6080    -0.9240 hc         1 GKA       0.058367
     76 H083       -27.1520     1.7390    -2.4450 hc         1 GKA       0.058367
     77 H081       -28.3140     1.5640    -1.1200 hc         1 GKA       0.058367
     78 H111       -27.5090    -3.1470    -2.3420 h1         1 GKA       0.090700
     79 H122       -26.4380    -2.7470    -4.5680 hc         1 GKA       0.076700
     80 H121       -25.7570    -1.4510    -3.5990 hc         1 GKA       0.076700
     81 H161       -31.2230    -3.2410    -9.4110 hc         1 GKA       0.037700
     82 H162       -29.9600    -4.4060    -9.0680 hc         1 GKA       0.037700
     83 H181       -28.5420    -0.5140   -11.6970 ha         1 GKA       0.168000
     84 H232       -21.3630    -0.3190    -4.5690 hc         1 GKA       0.087950
     85 H231       -21.0040     0.4720    -6.1780 hc         1 GKA       0.087950
     86 H303       -21.9660    -5.5040     2.2710 h1         1 GKA       0.045367
     87 H301       -23.6980    -5.1530     2.0990 h1         1 GKA       0.045367
     88 H302       -22.6230    -5.0800     0.6770 h1         1 GKA       0.045367
     89 H311       -22.0090    -0.9560     2.4690 ha         1 GKA       0.135000
     90 H321       -23.3280     0.9450     1.5680 ha         1 GKA       0.136000
     91 H341       -22.6350    -2.5710    -4.5230 hc         1 GKA       0.054367
     92 H342       -23.9640    -1.9370    -5.4990 hc         1 GKA       0.054367
     93 H343       -23.1030    -3.3990    -6.0120 hc         1 GKA       0.054367
     94 H372       -33.1640     2.1430    -2.1620 hc         1 GKA       0.040589
     95 H371       -32.4480     0.7620    -2.9910 hc         1 GKA       0.040589
     96 H373       -32.8660     2.2300    -3.9070 hc         1 GKA       0.040589
     97 H383       -34.9170     0.4830    -1.2490 hc         1 GKA       0.040589
     98 H381       -35.9810    -0.4010    -2.3530 hc         1 GKA       0.040589
     99 H382       -34.2690    -0.8490    -2.2170 hc         1 GKA       0.040589
    100 H391       -35.5160     2.7310    -2.3400 hc         1 GKA       0.040589
    101 H392       -35.4160     2.9140    -4.1010 hc         1 GKA       0.040589
    102 H393       -36.6470     1.8590    -3.3780 hc         1 GKA       0.040589
    103 H562       -39.0380     0.2410    -6.6090 hc         1 GKA       0.061033
    104 H561       -38.1260    -1.3050    -6.3510 hc         1 GKA       0.061033
    105 H563       -38.7160    -0.4810    -4.9770 hc         1 GKA       0.061033
    106 H411       -26.5590     1.1460    -6.0390 hn         1 GKA       0.321500
    107 H421       -23.9970     0.0350    -6.9230 hn         1 GKA       0.336500
    108 H431       -32.2330     0.5070    -5.4930 hn         1 GKA       0.328500
    109 H441       -36.3160    -1.0920    -4.6930 hn         1 GKA       0.323500
    110 O49        -26.8560    -1.8350    -7.0470 o          1 GKA      -0.565100
    111 C21        -24.9630    -0.1280    -8.7170 c          1 GKA       0.681100
    112 C36        -36.9910     0.4470    -5.8530 c          1 GKA       0.602100
@<TRIPOS>BOND
     1     1    18 ar  
     2     1    44 ar  
     3     1    46 1   
     4     2     5 1   
     5     2    20 1   
     6     2    39 1   
     7     2    55 1   
     8     3    11 1   
     9     3    12 1   
    10     3    56 1   
    11     3    57 1   
    12     4    13 1   
    13     4    23 1   
    14     4    58 1   
    15     4    59 1   
    16     5    40 1   
    17     5   110 2   
    18     6     7 1   
    19     6    25 1   
    20     6    33 1   
    21     6    54 1   
    22     7    25 1   
    23     7    60 1   
    24     7    61 1   
    25     8    26 1   
    26     8    34 1   
    27     8    43 1   
    28     8    62 1   
    29     9    27 ar  
    30     9    28 ar  
    31     9    63 1   
    32    10    19 1   
    33    10    39 1   
    34    10    64 1   
    35    10    65 1   
    36    11    21 1   
    37    11    42 1   
    38    11    66 1   
    39    12    22 1   
    40    12    67 1   
    41    12    68 1   
    42    13    22 1   
    43    13    69 1   
    44    13    70 1   
    45    14    15 1   
    46    14    23 2   
    47    14    71 1   
    48    15    16 1   
    49    15    24 1   
    50    15    72 1   
    51    16    24 1   
    52    16    73 1   
    53    16    74 1   
    54    17    18 1   
    55    17    75 1   
    56    17    76 1   
    57    17    77 1   
    58    18    45 ar  
    59    19    20 1   
    60    19    46 1   
    61    19    78 1   
    62    20    79 1   
    63    20    80 1   
    64    21    39 1   
    65    21    47 2   
    66    22    81 1   
    67    22    82 1   
    68    23    83 1   
    69    24    40 1   
    70    24   111 1   
    71    25    84 1   
    72    25    85 1   
    73    26    42 1   
    74    26    50 2   
    75    27    32 ar  
    76    27    44 ar  
    77    28    30 ar  
    78    28    51 1   
    79    29    51 1   
    80    29    86 1   
    81    29    87 1   
    82    29    88 1   
    83    30    31 ar  
    84    30    89 1   
    85    31    32 ar  
    86    31    90 1   
    87    32    45 ar  
    88    33    91 1   
    89    33    92 1   
    90    33    93 1   
    91    34    35 1   
    92    34    36 1   
    93    34    37 1   
    94    35    94 1   
    95    35    95 1   
    96    35    96 1   
    97    36    97 1   
    98    36    98 1   
    99    36    99 1   
   100    37   100 1   
   101    37   101 1   
   102    37   102 1   
   103    38   103 1   
   104    38   104 1   
   105    38   105 1   
   106    38   112 1   
   107    40   106 1   
   108    41    54 1   
   109    41   107 1   
   110    41   111 1   
   111    42   108 1   
   112    43   109 1   
   113    43   112 1   
   114    48    54 2   
   115    49    54 2   
   116    52   112 2   
   117    53   111 2   
@<TRIPOS>SUBSTRUCTURE
     1 GKA         1 TEMP              0 ****  ****    0 ROOT
