@<TRIPOS>MOLECULE
GKA
  112   117     1     0     0
SMALL
bcc


@<TRIPOS>ATOM
      1 C10        -27.6820    -1.1060    -1.2240 ca         1 GKA       0.554300
      2 C13        -27.6540    -0.6260    -5.0580 c5         1 GKA       0.029700
      3 C15        -31.3060    -1.8720    -7.6600 c3         1 GKA      -0.087400
      4 C17        -29.1510    -0.8890   -10.1970 c3         1 GKA      -0.049200
      5 C20        -27.0310    -0.5200    -6.4430 c          1 GKA       0.659100
      6 C22        -22.7140    -2.3130    -6.3550 cx         1 GKA      -0.287200
      7 C24        -21.4090    -2.5770    -5.6660 cx         1 GKA      -0.080400
      8 C26        -33.8940     0.5080    -4.3670 c3         1 GKA       0.049700
      9 C28        -24.7080    -2.2200     0.3680 ca         1 GKA      -0.287300
     10 C01        -29.1030    -2.4030    -4.2820 c5         1 GKA       0.101000
     11 C02        -31.2040    -1.4590    -6.1920 c3         1 GKA       0.048700
     12 C03        -30.2710    -2.9280    -8.0470 c3         1 GKA      -0.080400
     13 C04        -29.0220    -2.4130   -10.2380 c3         1 GKA      -0.073400
     14 C05        -27.1220     0.6240   -10.4380 c2         1 GKA      -0.144200
     15 C06        -27.1200     1.1250    -9.0500 cx         1 GKA      -0.033500
     16 C07        -26.3060     2.2850    -8.6000 cx         1 GKA      -0.097400
     17 C08        -29.4510     0.6140    -0.5880 c3         1 GKA      -0.138400
     18 C09        -28.1870    -0.1250    -0.2980 ca         1 GKA       0.317300
     19 C11        -27.9620    -2.2220    -3.3000 c5         1 GKA       0.142100
     20 C12        -26.8750    -1.5940    -4.1600 c5         1 GKA      -0.111400
     21 C14        -29.8860    -0.7130    -5.9720 c          1 GKA       0.662100
     22 C16        -30.1630    -3.1710    -9.5590 c3         1 GKA      -0.066400
     23 C18        -28.0290    -0.2220   -10.9300 c2         1 GKA      -0.136200
     24 C19        -25.9780     0.9250    -8.0500 cx         1 GKA      -0.069600
     25 C23        -22.3970    -1.6500    -5.0420 cx         1 GKA      -0.080400
     26 C25        -32.8760    -0.6090    -4.6100 c          1 GKA       0.667100
     27 C27        -25.9030    -1.5220     0.1140 ca         1 GKA       0.372300
     28 C29        -24.0110    -1.9730     1.5300 ca         1 GKA       0.167100
     29 C30        -22.3200    -3.5400     0.9900 c3         1 GKA       0.122700
     30 C31        -24.4940    -1.0220     2.4620 ca         1 GKA      -0.157000
     31 C32        -25.6510    -0.3390     2.2170 ca         1 GKA      -0.112300
     32 C33        -26.3830    -0.5730     1.0360 ca         1 GKA       0.231300
     33 C34        -23.7650    -3.3900    -6.4490 c3         1 GKA      -0.044100
     34 C35        -33.2990     1.6820    -3.5420 c3         1 GKA      -0.049000
     35 C37        -32.0300     2.1950    -4.2260 c3         1 GKA      -0.089433
     36 C38        -32.9510     1.2820    -2.1070 c3         1 GKA      -0.089433
     37 C39        -34.3300     2.8160    -3.5190 c3         1 GKA      -0.089433
     38 C56        -36.9650    -1.5070    -3.4960 c3         1 GKA      -0.176100
     39 N40        -28.9650    -1.2460    -5.1580 n          1 GKA      -0.460800
     40 N41        -26.3850     0.6400    -6.7150 ns         1 GKA      -0.544900
     41 N42        -24.0480    -0.4060    -7.5340 ns         1 GKA      -0.640300
     42 N43        -32.2940    -0.5880    -5.8200 ns         1 GKA      -0.552900
     43 N44        -35.0650    -0.0350    -3.7280 ns         1 GKA      -0.561900
     44 N45        -26.5910    -1.7700    -1.0290 nb         1 GKA      -0.754000
     45 N46        -27.5300     0.1110     0.7960 nb         1 GKA      -0.611000
     46 O47        -28.4220    -1.3000    -2.3110 os         1 GKA      -0.428100
     47 O48        -29.6790     0.3400    -6.5620 o          1 GKA      -0.626100
     48 O50        -22.7890    -2.0630    -8.9880 o          1 GKA      -0.586800
     49 O51        -21.4920    -0.3720    -7.6870 o          1 GKA      -0.586800
     50 O52        -32.6100    -1.4340    -3.7500 o          1 GKA      -0.613100
     51 O53        -22.8650    -2.5790     1.8730 os         1 GKA      -0.310900
     52 O54        -35.5940    -1.3660    -5.4560 o          1 GKA      -0.608100
     53 O57        -24.2840     0.3880    -9.6420 o          1 GKA      -0.540100
     54 S55        -22.6280    -1.2730    -7.7830 s6         1 GKA       1.287600
     55 H131       -27.7300     0.3610    -4.5930 h1         1 GKA       0.072700
     56 H151       -31.2150    -0.9860    -8.2930 hc         1 GKA       0.060700
     57 H152       -32.3110    -2.2680    -7.8300 hc         1 GKA       0.060700
     58 H172       -29.1950    -0.5540    -9.1610 hc         1 GKA       0.048200
     59 H171       -30.1030    -0.6040   -10.6610 hc         1 GKA       0.048200
     60 H241       -21.2940    -3.5720    -5.2580 hc         1 GKA       0.087950
     61 H242       -20.5010    -2.1510    -6.0710 hc         1 GKA       0.087950
     62 H261       -34.1900     0.9240    -5.3370 h1         1 GKA       0.068700
     63 H281       -24.3730    -2.9360    -0.3710 ha         1 GKA       0.152000
     64 H011       -30.0710    -2.4210    -3.7830 h1         1 GKA       0.080700
     65 H012       -28.9710    -3.3410    -4.8270 h1         1 GKA       0.080700
     66 H021       -31.2700    -2.3530    -5.5730 h1         1 GKA       0.088700
     67 H031       -30.5390    -3.8600    -7.5400 hc         1 GKA       0.047200
     68 H032       -29.2840    -2.6550    -7.6650 hc         1 GKA       0.047200
     69 H041       -28.9550    -2.7380   -11.2810 hc         1 GKA       0.047200
     70 H042       -28.0760    -2.6930    -9.7640 hc         1 GKA       0.047200
     71 H051       -26.3590     1.0060   -11.1040 ha         1 GKA       0.139000
     72 H061       -28.0690     1.0330    -8.5360 hc         1 GKA       0.102700
     73 H071       -25.5890     2.7130    -9.2900 hc         1 GKA       0.086200
     74 H072       -26.7500     2.9960    -7.9150 hc         1 GKA       0.086200
     75 H082       -29.6540     1.3260     0.2090 hc         1 GKA       0.058367
     76 H083       -29.3920     1.1550    -1.5330 hc         1 GKA       0.058367
     77 H081       -30.2990    -0.0690    -0.6670 hc         1 GKA       0.058367
     78 H111       -27.6580    -3.1620    -2.8380 h1         1 GKA       0.090700
     79 H122       -26.4140    -2.3860    -4.7540 hc         1 GKA       0.076700
     80 H121       -26.0920    -1.1000    -3.5890 hc         1 GKA       0.076700
     81 H161       -31.1110    -2.9220   -10.0460 hc         1 GKA       0.037700
     82 H162       -30.0060    -4.2370    -9.7390 hc         1 GKA       0.037700
     83 H181       -27.9440    -0.4820   -11.9820 ha         1 GKA       0.118000
     84 H232       -22.9750    -1.9940    -4.1940 hc         1 GKA       0.087950
     85 H231       -22.1550    -0.5950    -5.0230 hc         1 GKA       0.087950
     86 H303       -21.4030    -3.8980     1.4510 h1         1 GKA       0.045367
     87 H301       -22.9960    -4.3860     0.8430 h1         1 GKA       0.045367
     88 H302       -22.0800    -3.1060     0.0160 h1         1 GKA       0.045367
     89 H311       -23.9330    -0.8440     3.3700 ha         1 GKA       0.153000
     90 H321       -26.0230     0.3890     2.9270 ha         1 GKA       0.154000
     91 H341       -23.7870    -3.9430    -5.5100 hc         1 GKA       0.054367
     92 H342       -24.7610    -2.9820    -6.6190 hc         1 GKA       0.054367
     93 H343       -23.5410    -4.0960    -7.2460 hc         1 GKA       0.054367
     94 H372       -31.6820     3.0940    -3.7150 hc         1 GKA       0.040589
     95 H371       -31.2150     1.4710    -4.1940 hc         1 GKA       0.040589
     96 H373       -32.2050     2.4550    -5.2710 hc         1 GKA       0.040589
     97 H383       -32.5460     2.1470    -1.5800 hc         1 GKA       0.040589
     98 H381       -33.8150     0.9450    -1.5300 hc         1 GKA       0.040589
     99 H382       -32.2030     0.4920    -2.0710 hc         1 GKA       0.040589
    100 H391       -33.9240     3.6810    -2.9900 hc         1 GKA       0.040589
    101 H392       -34.5900     3.1360    -4.5290 hc         1 GKA       0.040589
    102 H393       -35.2520     2.5310    -3.0120 hc         1 GKA       0.040589
    103 H562       -37.8670    -1.5630    -4.1030 hc         1 GKA       0.061033
    104 H561       -36.7250    -2.5200    -3.1720 hc         1 GKA       0.061033
    105 H563       -37.1770    -0.9100    -2.6100 hc         1 GKA       0.061033
    106 H411       -26.4300     1.3990    -6.0530 hn         1 GKA       0.321500
    107 H421       -24.3260    -0.2710    -6.5690 hn         1 GKA       0.336500
    108 H431       -32.5570     0.1310    -6.4760 hn         1 GKA       0.328500
    109 H441       -35.2530     0.2040    -2.7690 hn         1 GKA       0.323500
    110 O49        -27.0630    -1.4430    -7.2310 o          1 GKA      -0.565100
    111 C21        -24.7080     0.2920    -8.5130 c          1 GKA       0.748100
    112 C36        -35.8250    -0.9700    -4.3230 c          1 GKA       0.669100
@<TRIPOS>BOND
     1     1    18 ar  
     2     1    44 ar  
     3     1    46 1   
     4     2     5 1   
     5     2    20 1   
     6     2    39 1   
     7     2    55 1   
     8     3    11 1   
     9     3    12 1   
    10     3    56 1   
    11     3    57 1   
    12     4    13 1   
    13     4    23 1   
    14     4    58 1   
    15     4    59 1   
    16     5    40 1   
    17     5   110 2   
    18     6     7 1   
    19     6    25 1   
    20     6    33 1   
    21     6    54 1   
    22     7    25 1   
    23     7    60 1   
    24     7    61 1   
    25     8    26 1   
    26     8    34 1   
    27     8    43 1   
    28     8    62 1   
    29     9    27 ar  
    30     9    28 ar  
    31     9    63 1   
    32    10    19 1   
    33    10    39 1   
    34    10    64 1   
    35    10    65 1   
    36    11    21 1   
    37    11    42 1   
    38    11    66 1   
    39    12    22 1   
    40    12    67 1   
    41    12    68 1   
    42    13    22 1   
    43    13    69 1   
    44    13    70 1   
    45    14    15 1   
    46    14    23 2   
    47    14    71 1   
    48    15    16 1   
    49    15    24 1   
    50    15    72 1   
    51    16    24 1   
    52    16    73 1   
    53    16    74 1   
    54    17    18 1   
    55    17    75 1   
    56    17    76 1   
    57    17    77 1   
    58    18    45 ar  
    59    19    20 1   
    60    19    46 1   
    61    19    78 1   
    62    20    79 1   
    63    20    80 1   
    64    21    39 1   
    65    21    47 2   
    66    22    81 1   
    67    22    82 1   
    68    23    83 1   
    69    24    40 1   
    70    24   111 1   
    71    25    84 1   
    72    25    85 1   
    73    26    42 1   
    74    26    50 2   
    75    27    32 ar  
    76    27    44 ar  
    77    28    30 ar  
    78    28    51 1   
    79    29    51 1   
    80    29    86 1   
    81    29    87 1   
    82    29    88 1   
    83    30    31 ar  
    84    30    89 1   
    85    31    32 ar  
    86    31    90 1   
    87    32    45 ar  
    88    33    91 1   
    89    33    92 1   
    90    33    93 1   
    91    34    35 1   
    92    34    36 1   
    93    34    37 1   
    94    35    94 1   
    95    35    95 1   
    96    35    96 1   
    97    36    97 1   
    98    36    98 1   
    99    36    99 1   
   100    37   100 1   
   101    37   101 1   
   102    37   102 1   
   103    38   103 1   
   104    38   104 1   
   105    38   105 1   
   106    38   112 1   
   107    40   106 1   
   108    41    54 1   
   109    41   107 1   
   110    41   111 1   
   111    42   108 1   
   112    43   109 1   
   113    43   112 1   
   114    48    54 2   
   115    49    54 2   
   116    52   112 2   
   117    53   111 2   
@<TRIPOS>SUBSTRUCTURE
     1 GKA         1 TEMP              0 ****  ****    0 ROOT
