@<TRIPOS>MOLECULE
GKC
   64    66     1     0     0
SMALL
No Charge or Current Charge


@<TRIPOS>ATOM
      1 O1         -24.3850    -7.7970   -58.1120 os         1 GKC      -0.470000
      2 C1         -25.7200    -8.1460   -58.5320 c6         1 GKC       0.399300
      3 C10        -22.6410    -9.7590   -60.0630 c3         1 GKC       0.175600
      4 C11        -25.9110   -12.6550   -60.0620 c6         1 GKC       0.152300
      5 C12        -24.6190   -12.8290   -60.9340 c6         1 GKC       0.407300
      6 C14        -22.6540   -15.9910   -61.5860 c6         1 GKC      -0.069700
      7 C15        -23.8200   -16.9350   -62.0050 c6         1 GKC      -0.071400
      8 C16        -21.3680   -16.3320   -62.3920 c6         1 GKC      -0.071400
      9 C17        -23.4270   -18.4260   -61.8520 c6         1 GKC      -0.071900
     10 C18        -22.1430   -18.7540   -62.6510 c6         1 GKC      -0.075400
     11 C19        -20.9770   -17.8230   -62.2370 c6         1 GKC      -0.071900
     12 C2         -26.5980    -6.8360   -58.6310 c6         1 GKC       0.161300
     13 C3         -24.2830    -7.3360   -56.7290 c6         1 GKC       0.152300
     14 C4         -26.0750    -5.7650   -57.6110 c6         1 GKC       0.127300
     15 C5         -25.5170    -6.4440   -56.3300 c6         1 GKC       0.108300
     16 C6         -24.0500    -8.5510   -55.7650 c3         1 GKC       0.136600
     17 C7         -25.1990   -10.2340   -59.6920 c6         1 GKC       0.114300
     18 C8         -26.3610   -11.1720   -60.1390 c6         1 GKC       0.110300
     19 C9         -23.9160   -10.5310   -60.5380 c6         1 GKC       0.173300
     20 O11        -24.1260   -14.1790   -60.8730 os         1 GKC      -0.432000
     21 O2         -26.6340    -6.2310   -59.9480 oh         1 GKC      -0.681000
     22 O3         -27.1040    -4.8170   -57.2770 oh         1 GKC      -0.663000
     23 O4         -25.1700    -5.4540   -55.3360 oh         1 GKC      -0.726000
     24 O5         -25.6200    -8.8490   -59.7870 os         1 GKC      -0.406000
     25 O6         -25.1050    -9.5310   -55.7740 oh         1 GKC      -0.728000
     26 O7         -23.5910   -11.9420   -60.4440 os         1 GKC      -0.497000
     27 O8         -27.5600   -10.9640   -59.3610 oh         1 GKC      -0.727000
     28 O9         -27.0110   -13.5020   -60.4660 oh         1 GKC      -0.706000
     29 H1         -26.1880    -8.8090   -57.7920 h2         1 GKC       0.047700
     30 H2         -22.4460   -10.0280   -59.0160 h1         1 GKC       0.030700
     31 H3         -21.7890   -10.1190   -60.6550 h1         1 GKC       0.030700
     32 H4         -25.6380   -12.8770   -59.0190 h1         1 GKC       0.065700
     33 H5         -24.8520   -12.5790   -61.9800 h2         1 GKC       0.031700
     34 H6         -22.1510   -13.8780   -61.4890 h1         1 GKC       0.033200
     35 H7         -23.2920   -14.2910   -62.7910 h1         1 GKC       0.033200
     36 H8         -22.4420   -16.1440   -60.5190 hc         1 GKC       0.060700
     37 H9         -24.7110   -16.7320   -61.3950 hc         1 GKC       0.042450
     38 H10        -24.1050   -16.7350   -63.0470 hc         1 GKC       0.042450
     39 H11        -20.5350   -15.7000   -62.0550 hc         1 GKC       0.042450
     40 H12        -21.5220   -16.1020   -63.4560 hc         1 GKC       0.042450
     41 H13        -24.2520   -19.0650   -62.1950 hc         1 GKC       0.037950
     42 H14        -23.2720   -18.6600   -60.7900 hc         1 GKC       0.037950
     43 H15        -22.3380   -18.6470   -63.7270 hc         1 GKC       0.036700
     44 H16        -21.8590   -19.8020   -62.4880 hc         1 GKC       0.036700
     45 H17        -20.0910   -18.0420   -62.8490 hc         1 GKC       0.037950
     46 H18        -20.6940   -18.0250   -61.1950 hc         1 GKC       0.037950
     47 H19        -27.6180    -7.1210   -58.3320 h1         1 GKC       0.047700
     48 H20        -23.3800    -6.7110   -56.6710 h1         1 GKC       0.082700
     49 H21        -25.2320    -5.2340   -58.0810 h1         1 GKC       0.063700
     50 H22        -26.3080    -7.1010   -55.9340 h1         1 GKC       0.063700
     51 H23        -23.1030    -9.0260   -56.0540 h1         1 GKC       0.030700
     52 H24        -23.9130    -8.1580   -54.7490 h1         1 GKC       0.030700
     53 H25        -24.9580   -10.4670   -58.6440 h1         1 GKC       0.074700
     54 H26        -26.5720   -10.9470   -61.1960 h1         1 GKC       0.054700
     55 H27        -24.1010   -10.2810   -61.5940 h1         1 GKC       0.063700
     56 H28        -23.4310    -8.0540   -59.5240 ho         1 GKC       0.506000
     57 H29        -27.1060    -5.3730   -59.8330 ho         1 GKC       0.508000
     58 H30        -26.8090    -4.4370   -56.4160 ho         1 GKC       0.464000
     59 H31        -25.0610    -5.9210   -54.4730 ho         1 GKC       0.515000
     60 H32        -24.8500   -10.2390   -55.1350 ho         1 GKC       0.511000
     61 H33        -27.8730   -10.0510   -59.5660 ho         1 GKC       0.517000
     62 H34        -27.8060   -13.0470   -60.0950 ho         1 GKC       0.519000
     63 O10        -22.7440    -8.3320   -60.1890 oh         1 GKC      -0.703000
     64 C13        -23.0270   -14.4890   -61.7440 c3         1 GKC       0.171600
@<TRIPOS>BOND
     1     1     2 1   
     2     1    13 1   
     3     2    12 1   
     4     2    24 1   
     5     2    29 1   
     6     3    19 1   
     7     3    30 1   
     8     3    31 1   
     9     3    63 1   
    10     4     5 1   
    11     4    18 1   
    12     4    28 1   
    13     4    32 1   
    14     5    20 1   
    15     5    26 1   
    16     5    33 1   
    17     6     7 1   
    18     6     8 1   
    19     6    36 1   
    20     6    64 1   
    21     7     9 1   
    22     7    37 1   
    23     7    38 1   
    24     8    11 1   
    25     8    39 1   
    26     8    40 1   
    27     9    10 1   
    28     9    41 1   
    29     9    42 1   
    30    10    11 1   
    31    10    43 1   
    32    10    44 1   
    33    11    45 1   
    34    11    46 1   
    35    12    14 1   
    36    12    21 1   
    37    12    47 1   
    38    13    15 1   
    39    13    16 1   
    40    13    48 1   
    41    14    15 1   
    42    14    22 1   
    43    14    49 1   
    44    15    23 1   
    45    15    50 1   
    46    16    25 1   
    47    16    51 1   
    48    16    52 1   
    49    17    18 1   
    50    17    19 1   
    51    17    24 1   
    52    17    53 1   
    53    18    27 1   
    54    18    54 1   
    55    19    26 1   
    56    19    55 1   
    57    20    64 1   
    58    21    57 1   
    59    22    58 1   
    60    23    59 1   
    61    25    60 1   
    62    27    61 1   
    63    28    62 1   
    64    34    64 1   
    65    35    64 1   
    66    56    63 1   
@<TRIPOS>SUBSTRUCTURE
     1 GKC         1 TEMP              0 ****  ****    0 ROOT
