@<TRIPOS>MOLECULE
GKC
   64    66     1     0     0
SMALL
abcg2


@<TRIPOS>ATOM
      1 O1         -24.4410    -7.7720   -58.0520 os         1 GKC      -0.470000
      2 C1         -25.6570    -8.2870   -58.5410 c6         1 GKC       0.399300
      3 C10        -22.4420    -9.6710   -59.9840 c3         1 GKC       0.175600
      4 C11        -25.4370   -12.7460   -59.7190 c6         1 GKC       0.152300
      5 C12        -24.1320   -12.8710   -60.4970 c6         1 GKC       0.407300
      6 C14        -22.6340   -16.0140   -61.3910 c6         1 GKC      -0.069700
      7 C15        -23.9640   -16.4520   -62.0030 c6         1 GKC      -0.071400
      8 C16        -21.4660   -16.4520   -62.2760 c6         1 GKC      -0.071400
      9 C17        -23.9920   -17.9520   -62.2790 c6         1 GKC      -0.071900
     10 C18        -22.8260   -18.3780   -63.1630 c6         1 GKC      -0.075400
     11 C19        -21.4940   -17.9500   -62.5560 c6         1 GKC      -0.071900
     12 C2         -26.6510    -7.1600   -58.8440 c6         1 GKC       0.161300
     13 C3         -24.5250    -7.1880   -56.7600 c6         1 GKC       0.152300
     14 C4         -26.4750    -6.0580   -57.7910 c6         1 GKC       0.127300
     15 C5         -25.9350    -6.6360   -56.4850 c6         1 GKC       0.108300
     16 C6         -24.0040    -8.1300   -55.6930 c3         1 GKC       0.136600
     17 C7         -24.8900   -10.3140   -59.4720 c6         1 GKC       0.114300
     18 C8         -25.9620   -11.3240   -59.8780 c6         1 GKC       0.110300
     19 C9         -23.6310   -10.5660   -60.3070 c6         1 GKC       0.173300
     20 O11        -23.5870   -14.1090   -60.2740 os         1 GKC      -0.432000
     21 O2         -26.4610    -6.6820   -60.1500 oh         1 GKC      -0.681000
     22 O3         -27.7090    -5.4100   -57.6200 oh         1 GKC      -0.663000
     23 O4         -25.8770    -5.5980   -55.5340 oh         1 GKC      -0.726000
     24 O5         -25.3920    -9.0080   -59.6840 os         1 GKC      -0.406000
     25 O6         -24.8390    -9.2610   -55.6030 oh         1 GKC      -0.728000
     26 O7         -23.2180   -11.8960   -60.0570 os         1 GKC      -0.497000
     27 O8         -27.1270   -11.2140   -59.0940 oh         1 GKC      -0.727000
     28 O9         -26.3400   -13.6950   -60.2210 oh         1 GKC      -0.706000
     29 H1         -26.1170    -8.9340   -57.7810 h2         1 GKC       0.047700
     30 H2         -22.3850    -9.5040   -58.9010 h1         1 GKC       0.030700
     31 H3         -21.5340   -10.2140   -60.2750 h1         1 GKC       0.030700
     32 H4         -25.2170   -12.9210   -58.6530 h1         1 GKC       0.065700
     33 H5         -24.3350   -12.7160   -61.5750 h2         1 GKC       0.031700
     34 H6         -21.5860   -14.2300   -60.7850 h1         1 GKC       0.033200
     35 H7         -22.6930   -14.0020   -62.1420 h1         1 GKC       0.033200
     36 H8         -22.5190   -16.5080   -60.4170 hc         1 GKC       0.060700
     37 H9         -24.7930   -16.1750   -61.3490 hc         1 GKC       0.042450
     38 H10        -24.1150   -15.9120   -62.9460 hc         1 GKC       0.042450
     39 H11        -20.5190   -16.1750   -61.8050 hc         1 GKC       0.042450
     40 H12        -21.5120   -15.9030   -63.2250 hc         1 GKC       0.042450
     41 H13        -24.9410   -18.2260   -62.7470 hc         1 GKC       0.037950
     42 H14        -23.9480   -18.5000   -61.3320 hc         1 GKC       0.037950
     43 H15        -22.9360   -17.9210   -64.1530 hc         1 GKC       0.036700
     44 H16        -22.8410   -19.4600   -63.3190 hc         1 GKC       0.036700
     45 H17        -20.6690   -18.2220   -63.2190 hc         1 GKC       0.037950
     46 H18        -21.3330   -18.4940   -61.6190 hc         1 GKC       0.037950
     47 H19        -27.6600    -7.5830   -58.7220 h1         1 GKC       0.047700
     48 H20        -23.8510    -6.3240   -56.7730 h1         1 GKC       0.082700
     49 H21        -25.7190    -5.3550   -58.1770 h1         1 GKC       0.063700
     50 H22        -26.6070    -7.4300   -56.1360 h1         1 GKC       0.063700
     51 H23        -22.9740    -8.4090   -55.9520 h1         1 GKC       0.030700
     52 H24        -23.9530    -7.5790   -54.7450 h1         1 GKC       0.030700
     53 H25        -24.6330   -10.4640   -58.4140 h1         1 GKC       0.074700
     54 H26        -26.1960   -11.1640   -60.9420 h1         1 GKC       0.054700
     55 H27        -23.8730   -10.4410   -61.3760 h1         1 GKC       0.063700
     56 H28        -21.8910    -7.8620   -60.3820 ho         1 GKC       0.506000
     57 H29        -27.1340    -6.0160   -60.3240 ho         1 GKC       0.508000
     58 H30        -27.5880    -4.7160   -56.9620 ho         1 GKC       0.464000
     59 H31        -26.0150    -5.9660   -54.6570 ho         1 GKC       0.515000
     60 H32        -24.4610    -9.8690   -54.9620 ho         1 GKC       0.511000
     61 H33        -27.6710   -10.5010   -59.4410 ho         1 GKC       0.517000
     62 H34        -27.1940   -13.5430   -59.8020 ho         1 GKC       0.519000
     63 O10        -22.5670    -8.4670   -60.6990 oh         1 GKC      -0.703000
     64 C13        -22.5700   -14.5120   -61.1770 c3         1 GKC       0.171600
@<TRIPOS>BOND
     1     1     2 1   
     2     1    13 1   
     3     2    12 1   
     4     2    24 1   
     5     2    29 1   
     6     3    19 1   
     7     3    30 1   
     8     3    31 1   
     9     3    63 1   
    10     4     5 1   
    11     4    18 1   
    12     4    28 1   
    13     4    32 1   
    14     5    20 1   
    15     5    26 1   
    16     5    33 1   
    17     6     7 1   
    18     6     8 1   
    19     6    36 1   
    20     6    64 1   
    21     7     9 1   
    22     7    37 1   
    23     7    38 1   
    24     8    11 1   
    25     8    39 1   
    26     8    40 1   
    27     9    10 1   
    28     9    41 1   
    29     9    42 1   
    30    10    11 1   
    31    10    43 1   
    32    10    44 1   
    33    11    45 1   
    34    11    46 1   
    35    12    14 1   
    36    12    21 1   
    37    12    47 1   
    38    13    15 1   
    39    13    16 1   
    40    13    48 1   
    41    14    15 1   
    42    14    22 1   
    43    14    49 1   
    44    15    23 1   
    45    15    50 1   
    46    16    25 1   
    47    16    51 1   
    48    16    52 1   
    49    17    18 1   
    50    17    19 1   
    51    17    24 1   
    52    17    53 1   
    53    18    27 1   
    54    18    54 1   
    55    19    26 1   
    56    19    55 1   
    57    20    64 1   
    58    21    57 1   
    59    22    58 1   
    60    23    59 1   
    61    25    60 1   
    62    27    61 1   
    63    28    62 1   
    64    34    64 1   
    65    35    64 1   
    66    56    63 1   
@<TRIPOS>SUBSTRUCTURE
     1 GKC         1 TEMP              0 ****  ****    0 ROOT
