@<TRIPOS>MOLECULE
GKD
   60    63     1     0     0
SMALL
No Charge or Current Charge


@<TRIPOS>ATOM
      1 N2          11.5960    42.3980     9.7420 nv         1 GKD      -1.045200
      2 C2          11.3140    43.5880     9.2590 cc         1 GKD       0.738800
      3 N1          10.0150    43.9550     9.3220 ns         1 GKD      -0.475400
      4 N3          12.3140    44.2830     8.7770 nd         1 GKD      -0.665100
      5 C4          11.9240    45.5240     8.2800 cd         1 GKD       0.202400
      6 C5          10.6350    45.9840     8.3010 cc         1 GKD       0.033500
      7 C6           9.5500    45.1490     8.8710 c          1 GKD       0.523500
      8 O6           8.3660    45.4520     8.9500 o          1 GKD      -0.593000
      9 N7          10.5570    47.2420     7.7480 nc         1 GKD      -0.629000
     10 C8          11.8060    47.5430     7.3900 cd         1 GKD       0.394400
     11 N9          12.6870    46.5120     7.6970 na         1 GKD      -0.187500
     12 C1          14.1240    46.5090     7.4330 c5         1 GKD       0.323300
     13 C7          15.0740    46.1390     8.6170 c5         1 GKD       0.132300
     14 O2          15.2710    47.1970     9.5740 oh         1 GKD      -0.721000
     15 C3          16.3850    45.9060     7.8160 c5         1 GKD       0.113300
     16 O3          16.9970    47.1790     7.4950 oh         1 GKD      -0.739000
     17 C9          15.8310    45.1530     6.5490 c5         1 GKD       0.141300
     18 O4          14.4390    45.5500     6.4020 os         1 GKD      -0.461000
     19 C10         15.9390    43.6000     6.5960 c3         1 GKD       0.213600
     20 O5          15.5210    43.1200     7.8880 os         1 GKD      -0.636400
     21 PA          15.2790    41.5480     8.1430 p5         1 GKD       1.539800
     22 O1A         15.1350    40.7620     6.8840 o          1 GKD      -0.864500
     23 O2A         14.0550    41.3830     8.9830 o          1 GKD      -0.864500
     24 O3A         16.5360    41.1390     8.9990 os         1 GKD      -0.730800
     25 PB          17.9600    41.4190     8.4020 p5         1 GKD       1.486800
     26 O2B         18.1180    41.0940     6.9570 o          1 GKD      -0.851000
     27 O3B         18.4360    42.7950     8.7280 o          1 GKD      -0.851000
     28 O1B         18.7690    40.3570     9.2940 os         1 GKD      -0.556400
     29 C1G         18.6360    38.9880     8.9200 c6         1 GKD       0.465300
     30 O5G         19.9340    38.5230     8.4930 os         1 GKD      -0.459000
     31 C5G         19.8900    37.1850     7.9240 c6         1 GKD       0.088300
     32 C6G         21.3080    36.8040     7.3920 c3         1 GKD       0.174600
     33 O6A         21.8160    37.7460     6.4310 oh         1 GKD      -0.682000
     34 C2G         18.1410    38.0960    10.1200 c6         1 GKD       0.145300
     35 O2G         16.8490    38.4660    10.6400 oh         1 GKD      -0.645000
     36 C3G         18.1090    36.5800     9.7530 c6         1 GKD       0.026300
     37 O3G         16.9130    36.2880     8.9840 oh         1 GKD      -0.612000
     38 C4G         19.3800    36.1450     8.9600 c          1 GKD       0.524100
     39 O4G         19.9180    35.0580     9.1530 o          1 GKD      -0.555100
     40 H2N1        12.5440    42.0940     9.4770 hn         1 GKD       0.540500
     41 H2N2        10.8990    41.6830     9.6010 hn         1 GKD       0.540500
     42 H1           9.3460    43.3360     9.7490 hn         1 GKD       0.303500
     43 H8          12.1380    48.4600     6.9170 h5         1 GKD       0.042100
     44 H7          14.3700    47.5150     7.0690 h2         1 GKD       0.057700
     45 H2          14.7400    45.2130     9.1060 h1         1 GKD       0.122700
     46 HA          16.0160    47.7130     9.1730 ho         1 GKD       0.509000
     47 H3          17.0810    45.2660     8.3810 h1         1 GKD       0.111700
     48 HB          17.8290    46.9910     6.9990 ho         1 GKD       0.497000
     49 H4          16.3660    45.4840     5.6480 h1         1 GKD       0.036700
     50 H5'1        16.9810    43.3290     6.3910 h1         1 GKD       0.064200
     51 H5'2        15.3190    43.1800     5.7920 h1         1 GKD       0.064200
     52 H1G         17.9160    38.8790     8.0920 h2         1 GKD       0.085700
     53 H5G         19.1830    37.1690     7.0830 h1         1 GKD       0.096700
     54 H6G1        21.2520    35.8060     6.9360 h1         1 GKD       0.020200
     55 H6G2        21.9930    36.7380     8.2480 h1         1 GKD       0.020200
     56 H6A         22.7350    37.4670     6.2130 ho         1 GKD       0.479000
     57 H2G         18.8870    38.2180    10.9180 h1         1 GKD       0.042700
     58 HC          16.2160    37.8860    10.1550 ho         1 GKD       0.470000
     59 H3G         18.1020    35.9980    10.6860 h1         1 GKD       0.028700
     60 HD          16.8350    35.3090     8.9140 ho         1 GKD       0.423000
@<TRIPOS>BOND
     1     1     2 1   
     2     1    40 1   
     3     1    41 1   
     4     2     3 1   
     5     2     4 2   
     6     3     7 1   
     7     3    42 1   
     8     4     5 1   
     9     5     6 2   
    10     5    11 1   
    11     6     7 1   
    12     6     9 1   
    13     7     8 2   
    14     9    10 2   
    15    10    11 1   
    16    10    43 1   
    17    11    12 1   
    18    12    13 1   
    19    12    18 1   
    20    12    44 1   
    21    13    14 1   
    22    13    15 1   
    23    13    45 1   
    24    14    46 1   
    25    15    16 1   
    26    15    17 1   
    27    15    47 1   
    28    16    48 1   
    29    17    18 1   
    30    17    19 1   
    31    17    49 1   
    32    19    20 1   
    33    19    50 1   
    34    19    51 1   
    35    20    21 1   
    36    21    22 1   
    37    21    23 1   
    38    21    24 1   
    39    24    25 1   
    40    25    26 1   
    41    25    27 1   
    42    25    28 1   
    43    28    29 1   
    44    29    30 1   
    45    29    34 1   
    46    29    52 1   
    47    30    31 1   
    48    31    32 1   
    49    31    38 1   
    50    31    53 1   
    51    32    33 1   
    52    32    54 1   
    53    32    55 1   
    54    33    56 1   
    55    34    35 1   
    56    34    36 1   
    57    34    57 1   
    58    35    58 1   
    59    36    37 1   
    60    36    38 1   
    61    36    59 1   
    62    37    60 1   
    63    38    39 2   
@<TRIPOS>SUBSTRUCTURE
     1 GKD         1 TEMP              0 ****  ****    0 ROOT
