@<TRIPOS>MOLECULE
GKD
   60    63     1     0     0
SMALL
abcg2


@<TRIPOS>ATOM
      1 N2          11.5800    42.4780     9.6220 nv         1 GKD      -1.045200
      2 C2          11.3210    43.6520     9.0300 cc         1 GKD       0.738800
      3 N1          10.0130    44.0670     8.9600 ns         1 GKD      -0.475400
      4 N3          12.3160    44.3760     8.5500 nd         1 GKD      -0.665100
      5 C4          11.9310    45.5320     7.9920 cd         1 GKD       0.202400
      6 C5          10.6400    46.0380     7.8750 cc         1 GKD       0.033500
      7 C6           9.5550    45.2720     8.3940 c          1 GKD       0.523500
      8 O6           8.3520    45.5330     8.3930 o          1 GKD      -0.593000
      9 N7          10.6520    47.2630     7.2250 nc         1 GKD      -0.629000
     10 C8          11.9090    47.4830     6.9560 cd         1 GKD       0.394400
     11 N9          12.7450    46.4720     7.3990 na         1 GKD      -0.187500
     12 C1          14.1750    46.4480     7.2160 c5         1 GKD       0.323300
     13 C7          15.0020    46.2170     8.4790 c5         1 GKD       0.132300
     14 O2          15.0080    47.3850     9.2700 oh         1 GKD      -0.721000
     15 C3          16.3460    45.7860     7.8780 c5         1 GKD       0.113300
     16 O3          17.0730    46.9550     7.5090 oh         1 GKD      -0.739000
     17 C9          15.9000    44.9730     6.6480 c5         1 GKD       0.141300
     18 O4          14.5370    45.3810     6.3580 os         1 GKD      -0.461000
     19 C10         15.9920    43.4720     6.8020 c3         1 GKD       0.213600
     20 O5          15.4750    43.0800     8.0780 os         1 GKD      -0.636400
     21 PA          15.2940    41.5290     8.5020 p5         1 GKD       1.539800
     22 O1A         15.1970    40.6610     7.2940 o          1 GKD      -0.864500
     23 O2A         14.2230    41.4900     9.5480 o          1 GKD      -0.864500
     24 O3A         16.6690    41.2170     9.3170 os         1 GKD      -0.730800
     25 PB          18.2430    41.4900     9.0110 p5         1 GKD       1.486800
     26 O2B         18.5020    41.4470     7.5440 o          1 GKD      -0.851000
     27 O3B         18.7070    42.6360     9.8400 o          1 GKD      -0.851000
     28 O1B         18.8600    40.1530     9.7370 os         1 GKD      -0.556400
     29 C1G         18.6160    38.8910     9.1980 c6         1 GKD       0.465300
     30 O5G         19.7660    38.5300     8.4410 os         1 GKD      -0.459000
     31 C5G         19.6210    37.3110     7.7070 c6         1 GKD       0.088300
     32 C6G         20.8310    37.1210     6.8270 c3         1 GKD       0.174600
     33 O6A         20.7970    38.1090     5.8010 oh         1 GKD      -0.682000
     34 C2G         18.4520    37.8750    10.3250 c6         1 GKD       0.145300
     35 O2G         17.3260    38.2270    11.1040 oh         1 GKD      -0.645000
     36 C3G         18.3260    36.4640     9.7380 c6         1 GKD       0.026300
     37 O3G         17.0920    36.3760     9.0270 oh         1 GKD      -0.612000
     38 C4G         19.4510    36.1960     8.7360 c          1 GKD       0.524100
     39 O4G         20.1260    35.1930     8.7680 o          1 GKD      -0.555100
     40 H2N1        12.5390    42.1090     9.5760 hn         1 GKD       0.540500
     41 H2N2        10.8290    41.8680     9.8970 hn         1 GKD       0.540500
     42 H1           9.2920    43.4700     9.3430 hn         1 GKD       0.303500
     43 H8          12.3110    48.3470     6.4490 h5         1 GKD       0.042100
     44 H7          14.4380    47.4160     6.7800 h2         1 GKD       0.057700
     45 H2          14.5820    45.3670     9.0160 h1         1 GKD       0.122700
     46 HA          15.2980    47.1550    10.1610 ho         1 GKD       0.509000
     47 H3          16.9270    45.1760     8.5720 h1         1 GKD       0.111700
     48 HB          17.9120    46.6750     7.1220 ho         1 GKD       0.497000
     49 H4          16.5210    45.2520     5.7920 h1         1 GKD       0.036700
     50 H5'1        17.0380    43.1720     6.7220 h1         1 GKD       0.064200
     51 H5'2        15.4270    42.9850     6.0050 h1         1 GKD       0.064200
     52 H1G         17.7350    38.9010     8.5470 h2         1 GKD       0.085700
     53 H5G         18.7180    37.3580     7.0840 h1         1 GKD       0.096700
     54 H6G1        20.7960    36.1130     6.4060 h1         1 GKD       0.020200
     55 H6G2        21.7390    37.2110     7.4330 h1         1 GKD       0.020200
     56 H6A         21.5680    37.9790     5.2350 ho         1 GKD       0.479000
     57 H2G         19.3710    37.9110    10.9200 h1         1 GKD       0.042700
     58 HC          17.3180    37.6830    11.9020 ho         1 GKD       0.470000
     59 H3G         18.3740    35.7190    10.5370 h1         1 GKD       0.028700
     60 HD          16.9240    35.4490     8.8160 ho         1 GKD       0.423000
@<TRIPOS>BOND
     1     1     2 1   
     2     1    40 1   
     3     1    41 1   
     4     2     3 1   
     5     2     4 2   
     6     3     7 1   
     7     3    42 1   
     8     4     5 1   
     9     5     6 2   
    10     5    11 1   
    11     6     7 1   
    12     6     9 1   
    13     7     8 2   
    14     9    10 2   
    15    10    11 1   
    16    10    43 1   
    17    11    12 1   
    18    12    13 1   
    19    12    18 1   
    20    12    44 1   
    21    13    14 1   
    22    13    15 1   
    23    13    45 1   
    24    14    46 1   
    25    15    16 1   
    26    15    17 1   
    27    15    47 1   
    28    16    48 1   
    29    17    18 1   
    30    17    19 1   
    31    17    49 1   
    32    19    20 1   
    33    19    50 1   
    34    19    51 1   
    35    20    21 1   
    36    21    22 1   
    37    21    23 1   
    38    21    24 1   
    39    24    25 1   
    40    25    26 1   
    41    25    27 1   
    42    25    28 1   
    43    28    29 1   
    44    29    30 1   
    45    29    34 1   
    46    29    52 1   
    47    30    31 1   
    48    31    32 1   
    49    31    38 1   
    50    31    53 1   
    51    32    33 1   
    52    32    54 1   
    53    32    55 1   
    54    33    56 1   
    55    34    35 1   
    56    34    36 1   
    57    34    57 1   
    58    35    58 1   
    59    36    37 1   
    60    36    38 1   
    61    36    59 1   
    62    37    60 1   
    63    38    39 2   
@<TRIPOS>SUBSTRUCTURE
     1 GKD         1 TEMP              0 ****  ****    0 ROOT
