@<TRIPOS>MOLECULE
GKE
   62    65     1     0     0
SMALL
abcg2


@<TRIPOS>ATOM
      1 N2          12.0160    42.5950    10.0870 nv         1 GKE      -1.044200
      2 C2          11.5660    43.5620     9.2750 cc         1 GKE       0.742800
      3 N1          10.2100    43.6660     9.0760 ns         1 GKE      -0.473400
      4 N3          12.4250    44.3910     8.7090 nd         1 GKE      -0.670100
      5 C4          11.8560    45.3190     7.9280 cd         1 GKE       0.205400
      6 C5          10.5010    45.5040     7.6660 cc         1 GKE       0.034500
      7 C6           9.5610    44.6250     8.2760 c          1 GKE       0.523500
      8 O6           8.3330    44.6160     8.1810 o          1 GKE      -0.595000
      9 N7          10.3120    46.5710     6.8000 nc         1 GKE      -0.628000
     10 C8          11.5140    47.0110     6.5480 cd         1 GKE       0.394400
     11 N9          12.5020    46.2980     7.2040 na         1 GKE      -0.188500
     12 C1          13.9130    46.5800     7.1150 c5         1 GKE       0.324300
     13 C7          14.6370    46.7520     8.4470 c5         1 GKE       0.128300
     14 O2          14.2940    47.9920     9.0250 oh         1 GKE      -0.718000
     15 C3          16.0990    46.5760     8.0160 c5         1 GKE       0.113300
     16 O3          16.5790    47.8250     7.5300 oh         1 GKE      -0.738000
     17 C9          15.9820    45.5250     6.8910 c5         1 GKE       0.142300
     18 O4          14.5900    45.5090     6.4830 os         1 GKE      -0.446000
     19 C10         16.4370    44.1320     7.2560 c3         1 GKE       0.209600
     20 O5          15.9070    43.7490     8.5270 os         1 GKE      -0.628400
     21 PA          15.6110    42.2030     8.9080 p5         1 GKE       1.536800
     22 O1A         15.1140    41.4540     7.7180 o          1 GKE      -0.858000
     23 O2A         14.8040    42.2360    10.1700 o          1 GKE      -0.858000
     24 O3A         17.0700    41.6530     9.3580 os         1 GKE      -0.735800
     25 PB          18.5540    41.6270     8.6870 p5         1 GKE       1.488800
     26 O2B         18.4600    41.2730     7.2420 o          1 GKE      -0.851500
     27 O3B         19.3110    42.8320     9.1280 o          1 GKE      -0.851500
     28 O1B         19.1720    40.3800     9.5470 os         1 GKE      -0.560400
     29 C1G         18.7410    39.0690     9.3100 c6         1 GKE       0.472300
     30 O5G         19.7530    38.4420     8.5380 os         1 GKE      -0.453000
     31 C5G         19.4370    37.0950     8.1750 c6         1 GKE       0.191300
     32 C6G         20.5100    36.6000     7.2330 c3         1 GKE       0.172600
     33 O6A         20.3740    37.2860     5.9870 oh         1 GKE      -0.691000
     34 C2G         18.6040    38.3210    10.6320 c6         1 GKE       0.138300
     35 O2G         17.6250    38.9700    11.4280 oh         1 GKE      -0.644000
     36 C3G         18.2620    36.8520    10.3710 c6         1 GKE       0.098300
     37 O3G         16.9550    36.7860     9.8080 oh         1 GKE      -0.616000
     38 C4G         19.2900    36.2220     9.4160 c6         1 GKE       0.104300
     39 O4G         20.5630    36.0870    10.0440 oh         1 GKE      -0.705000
     40 H2N1        13.0330    42.4370    10.1250 hn         1 GKE       0.537500
     41 HA2         11.3930    41.8790    10.4200 hn         1 GKE       0.537500
     42 HA           9.5970    43.0030     9.5330 hn         1 GKE       0.303500
     43 HB          11.7670    47.8410     5.9070 h5         1 GKE       0.042100
     44 HC          13.9980    47.5030     6.5310 h2         1 GKE       0.055700
     45 HD          14.3700    45.9190     9.0970 h1         1 GKE       0.120700
     46 H2          14.5050    47.9630     9.9660 ho         1 GKE       0.503000
     47 HE          16.7240    46.2170     8.8350 h1         1 GKE       0.094700
     48 H3          17.4960    47.7060     7.2540 ho         1 GKE       0.495000
     49 HF          16.5820    45.8560     6.0380 h1         1 GKE       0.035700
     50 HA1         17.5290    44.1230     7.3040 h1         1 GKE       0.065700
     51 HB2         16.1160    43.4260     6.4880 h1         1 GKE       0.065700
     52 HG          17.7950    39.0630     8.7580 h2         1 GKE       0.076700
     53 HI          18.4730    37.0800     7.6520 h1         1 GKE       0.072700
     54 HB1         20.3830    35.5210     7.0970 h1         1 GKE       0.016200
     55 HC2         21.4940    36.7820     7.6710 h1         1 GKE       0.016200
     56 H6A         21.1430    37.0800     5.4440 ho         1 GKE       0.480000
     57 HH          19.5840    38.3540    11.1170 h1         1 GKE       0.050700
     58 H2G         17.5710    38.5130    12.2770 ho         1 GKE       0.465000
     59 H3G         18.2900    36.3130    11.3270 h1         1 GKE      -0.000300
     60 HJ          16.7060    35.8580     9.7230 ho         1 GKE       0.414000
     61 H4G         18.9140    35.2410     9.1030 h1         1 GKE       0.008700
     62 HK          20.4720    35.4770    10.7870 ho         1 GKE       0.478000
@<TRIPOS>BOND
     1     1     2 1   
     2     1    40 1   
     3     1    41 1   
     4     2     3 1   
     5     2     4 2   
     6     3     7 1   
     7     3    42 1   
     8     4     5 1   
     9     5     6 2   
    10     5    11 1   
    11     6     7 1   
    12     6     9 1   
    13     7     8 2   
    14     9    10 2   
    15    10    11 1   
    16    10    43 1   
    17    11    12 1   
    18    12    13 1   
    19    12    18 1   
    20    12    44 1   
    21    13    14 1   
    22    13    15 1   
    23    13    45 1   
    24    14    46 1   
    25    15    16 1   
    26    15    17 1   
    27    15    47 1   
    28    16    48 1   
    29    17    18 1   
    30    17    19 1   
    31    17    49 1   
    32    19    20 1   
    33    19    50 1   
    34    19    51 1   
    35    20    21 1   
    36    21    22 1   
    37    21    23 1   
    38    21    24 1   
    39    24    25 1   
    40    25    26 1   
    41    25    27 1   
    42    25    28 1   
    43    28    29 1   
    44    29    30 1   
    45    29    34 1   
    46    29    52 1   
    47    30    31 1   
    48    31    32 1   
    49    31    38 1   
    50    31    53 1   
    51    32    33 1   
    52    32    54 1   
    53    32    55 1   
    54    33    56 1   
    55    34    35 1   
    56    34    36 1   
    57    34    57 1   
    58    35    58 1   
    59    36    37 1   
    60    36    38 1   
    61    36    59 1   
    62    37    60 1   
    63    38    39 1   
    64    38    61 1   
    65    39    62 1   
@<TRIPOS>SUBSTRUCTURE
     1 GKE         1 TEMP              0 ****  ****    0 ROOT
