@<TRIPOS>MOLECULE
GKE
   62    65     1     0     0
SMALL
No Charge or Current Charge


@<TRIPOS>ATOM
      1 N2          12.0610    42.6230    10.4400 nv         1 GKE      -1.044200
      2 C2          11.5900    43.4910     9.5740 cc         1 GKE       0.742800
      3 N1          10.2520    43.4840     9.3890 ns         1 GKE      -0.473400
      4 N3          12.4710    44.2590     8.9850 nd         1 GKE      -0.670100
      5 C4          11.8990    45.1340     8.0670 cd         1 GKE       0.205400
      6 C5          10.5570    45.2030     7.8090 cc         1 GKE       0.034500
      7 C6           9.6110    44.3100     8.5220 c          1 GKE       0.523500
      8 O6           8.3950    44.2830     8.3840 o          1 GKE      -0.595000
      9 N7          10.2930    46.1660     6.8610 nc         1 GKE      -0.628000
     10 C8          11.4850    46.6770     6.5430 cd         1 GKE       0.394400
     11 N9          12.5080    46.0690     7.2610 na         1 GKE      -0.188500
     12 C1          13.9320    46.3800     7.1590 c5         1 GKE       0.324300
     13 C7          14.7110    46.6480     8.4850 c5         1 GKE       0.128300
     14 O2          14.4500    47.9300     9.0840 oh         1 GKE      -0.718000
     15 C3          16.1600    46.6160     7.9220 c5         1 GKE       0.113300
     16 O3          16.4730    47.8870     7.3060 oh         1 GKE      -0.738000
     17 C9          16.0560    45.4390     6.8790 c5         1 GKE       0.142300
     18 O4          14.6440    45.2740     6.5720 os         1 GKE      -0.446000
     19 C10         16.6750    44.0870     7.3390 c3         1 GKE       0.209600
     20 O5          16.2210    43.7580     8.6700 os         1 GKE      -0.628400
     21 PA          15.8690    42.2370     9.0880 p5         1 GKE       1.536800
     22 O1A         15.4560    41.3760     7.9430 o          1 GKE      -0.858000
     23 O2A         14.7870    42.2530    10.1160 o          1 GKE      -0.858000
     24 O3A         17.1940    41.7560     9.7890 os         1 GKE      -0.735800
     25 PB          18.5350    41.7840     8.9740 p5         1 GKE       1.488800
     26 O2B         18.4090    41.5250     7.5130 o          1 GKE      -0.851500
     27 O3B         19.3020    43.0330     9.2540 o          1 GKE      -0.851500
     28 O1B         19.2490    40.5450     9.6990 os         1 GKE      -0.560400
     29 C1G         18.7790    39.2500     9.3290 c6         1 GKE       0.472300
     30 O5G         19.8530    38.5670     8.6480 os         1 GKE      -0.453000
     31 C5G         19.4570    37.2680     8.1320 c6         1 GKE       0.191300
     32 C6G         20.6210    36.6900     7.2590 c3         1 GKE       0.172600
     33 O6A         20.9710    37.5300     6.1420 oh         1 GKE      -0.691000
     34 C2G         18.3240    38.4130    10.5870 c6         1 GKE       0.138300
     35 O2G         17.2410    39.0150    11.3310 oh         1 GKE      -0.644000
     36 C3G         17.9030    36.9810    10.1330 c6         1 GKE       0.098300
     37 O3G         16.6920    37.0570     9.3610 oh         1 GKE      -0.616000
     38 C4G         19.0510    36.3130     9.3080 c6         1 GKE       0.104300
     39 O4G         20.1730    36.0310    10.1720 oh         1 GKE      -0.705000
     40 H2N1        13.0850    42.5430    10.3540 hn         1 GKE       0.537500
     41 HA2         11.5960    41.7280    10.4690 hn         1 GKE       0.537500
     42 HA           9.6810    42.8580     9.9330 hn         1 GKE       0.303500
     43 HB          11.6780    47.4630     5.8230 h5         1 GKE       0.042100
     44 HC          14.0100    47.2510     6.4960 h2         1 GKE       0.055700
     45 HD          14.5530    45.8280     9.1990 h1         1 GKE       0.120700
     46 H2          15.1000    48.5200     8.6220 ho         1 GKE       0.503000
     47 HE          16.8840    46.3790     8.7180 h1         1 GKE       0.094700
     48 H3          17.4050    47.8400     6.9830 ho         1 GKE       0.495000
     49 HF          16.5630    45.7210     5.9460 h1         1 GKE       0.035700
     50 HA1         17.7660    44.1970     7.3240 h1         1 GKE       0.065700
     51 HB2         16.4080    43.3140     6.6060 h1         1 GKE       0.065700
     52 HG          17.9160    39.3320     8.6480 h2         1 GKE       0.076700
     53 HI          18.5910    37.4020     7.4670 h1         1 GKE       0.072700
     54 HB1         20.3150    35.7000     6.8950 h1         1 GKE       0.016200
     55 HC2         21.5010    36.5430     7.9000 h1         1 GKE       0.016200
     56 H6A         21.7620    37.1260     5.7170 ho         1 GKE       0.480000
     57 HH          19.2000    38.3190    11.2460 h1         1 GKE       0.050700
     58 H2G         16.4240    38.7530    10.8500 ho         1 GKE       0.465000
     59 H3G         17.7160    36.3710    11.0290 h1         1 GKE      -0.000300
     60 HJ          16.3340    36.1440     9.2910 ho         1 GKE       0.414000
     61 H4G         18.6790    35.3700     8.8810 h1         1 GKE       0.008700
     62 HK          19.9010    35.2980    10.7710 ho         1 GKE       0.478000
@<TRIPOS>BOND
     1     1     2 1   
     2     1    40 1   
     3     1    41 1   
     4     2     3 1   
     5     2     4 2   
     6     3     7 1   
     7     3    42 1   
     8     4     5 1   
     9     5     6 2   
    10     5    11 1   
    11     6     7 1   
    12     6     9 1   
    13     7     8 2   
    14     9    10 2   
    15    10    11 1   
    16    10    43 1   
    17    11    12 1   
    18    12    13 1   
    19    12    18 1   
    20    12    44 1   
    21    13    14 1   
    22    13    15 1   
    23    13    45 1   
    24    14    46 1   
    25    15    16 1   
    26    15    17 1   
    27    15    47 1   
    28    16    48 1   
    29    17    18 1   
    30    17    19 1   
    31    17    49 1   
    32    19    20 1   
    33    19    50 1   
    34    19    51 1   
    35    20    21 1   
    36    21    22 1   
    37    21    23 1   
    38    21    24 1   
    39    24    25 1   
    40    25    26 1   
    41    25    27 1   
    42    25    28 1   
    43    28    29 1   
    44    29    30 1   
    45    29    34 1   
    46    29    52 1   
    47    30    31 1   
    48    31    32 1   
    49    31    38 1   
    50    31    53 1   
    51    32    33 1   
    52    32    54 1   
    53    32    55 1   
    54    33    56 1   
    55    34    35 1   
    56    34    36 1   
    57    34    57 1   
    58    35    58 1   
    59    36    37 1   
    60    36    38 1   
    61    36    59 1   
    62    37    60 1   
    63    38    39 1   
    64    38    61 1   
    65    39    62 1   
@<TRIPOS>SUBSTRUCTURE
     1 GKE         1 TEMP              0 ****  ****    0 ROOT
