@<TRIPOS>MOLECULE
GKF
   17    18     1     0     0
SMALL
abcg2


@<TRIPOS>ATOM
      1 C01        -19.1990   -37.1970     2.4300 c          1 GKF       0.595500
      2 O02        -20.2820   -37.3820     2.9440 o          1 GKF      -0.541100
      3 C03        -18.8080   -37.7550     1.1410 ca         1 GKF      -0.223600
      4 C04        -17.5530   -37.5080     0.6150 ca         1 GKF      -0.016000
      5 C05        -17.1440   -38.0280    -0.6230 ca         1 GKF      -0.166000
      6 C06        -17.9940   -38.8150    -1.3700 ca         1 GKF       0.007000
      7 C07        -19.2700   -39.0830    -0.8670 ca         1 GKF      -0.230900
      8 C08        -19.6710   -38.5600     0.3740 ca         1 GKF       0.009800
      9 N09        -20.9320   -38.9910     0.5750 na         1 GKF      -0.039400
     10 N10        -21.3790   -39.7470    -0.4320 nc         1 GKF      -0.470100
     11 C11        -20.4080   -39.8140    -1.2980 cd         1 GKF       0.385800
     12 I12        -20.5990   -40.8830    -3.0620 i          1 GKF      -0.080200
     13 H1         -18.4290   -36.5800     2.9230 h4         1 GKF      -0.001800
     14 H2         -16.8640   -36.8900     1.1790 ha         1 GKF       0.117000
     15 H3         -16.1510   -37.8060    -0.9890 ha         1 GKF       0.124000
     16 H4         -17.6820   -39.2170    -2.3250 ha         1 GKF       0.129000
     17 H5         -21.5310   -38.8000     1.3630 hn         1 GKF       0.401000
@<TRIPOS>BOND
     1     1     2 2   
     2     1     3 1   
     3     1    13 1   
     4     3     4 ar  
     5     3     8 ar  
     6     4     5 ar  
     7     4    14 1   
     8     5     6 ar  
     9     5    15 1   
    10     6     7 ar  
    11     6    16 1   
    12     7     8 ar  
    13     7    11 1   
    14     8     9 1   
    15     9    10 1   
    16     9    17 1   
    17    10    11 2   
    18    11    12 1   
@<TRIPOS>SUBSTRUCTURE
     1 GKF         1 TEMP              0 ****  ****    0 ROOT
