@<TRIPOS>MOLECULE
GKF
   17    18     1     0     0
SMALL
No Charge or Current Charge


@<TRIPOS>ATOM
      1 C01        -19.2160   -37.1840     2.4670 c          1 GKF       0.595500
      2 O02        -20.3180   -37.3740     2.9740 o          1 GKF      -0.541100
      3 C03        -18.8070   -37.7560     1.1360 ca         1 GKF      -0.223600
      4 C04        -17.5170   -37.4930     0.6140 ca         1 GKF      -0.016000
      5 C05        -17.1230   -38.0260    -0.6380 ca         1 GKF      -0.166000
      6 C06        -18.0080   -38.8290    -1.3870 ca         1 GKF       0.007000
      7 C07        -19.2750   -39.0680    -0.8390 ca         1 GKF      -0.230900
      8 C08        -19.6620   -38.5610     0.3600 ca         1 GKF       0.009800
      9 N09        -20.9570   -38.9830     0.6020 na         1 GKF      -0.039400
     10 N10        -21.4250   -39.7820    -0.4590 nc         1 GKF      -0.470100
     11 C11        -20.4010   -39.8260    -1.3240 cd         1 GKF       0.385800
     12 I12        -20.5520   -40.9090    -3.1340 i          1 GKF      -0.080200
     13 H1         -18.4520   -36.5630     2.9850 h4         1 GKF      -0.001800
     14 H2         -16.8160   -36.8760     1.1740 ha         1 GKF       0.117000
     15 H3         -16.1290   -37.8150    -1.0260 ha         1 GKF       0.124000
     16 H4         -17.7170   -39.2450    -2.3500 ha         1 GKF       0.129000
     17 H5         -21.5220   -38.7660     1.4230 hn         1 GKF       0.401000
@<TRIPOS>BOND
     1     1     2 2   
     2     1     3 1   
     3     1    13 1   
     4     3     4 ar  
     5     3     8 ar  
     6     4     5 ar  
     7     4    14 1   
     8     5     6 ar  
     9     5    15 1   
    10     6     7 ar  
    11     6    16 1   
    12     7     8 ar  
    13     7    11 1   
    14     8     9 1   
    15     9    10 1   
    16     9    17 1   
    17    10    11 2   
    18    11    12 1   
@<TRIPOS>SUBSTRUCTURE
     1 GKF         1 TEMP              0 ****  ****    0 ROOT
