@<TRIPOS>MOLECULE
GKG
  103   108     1     0     0
SMALL
No Charge or Current Charge


@<TRIPOS>ATOM
      1 C10         -1.3230    -3.3670    -1.1910 c3         1 GKG      -0.084400
      2 C13         -5.5100    -1.7540     1.1640 cx         1 GKG      -0.031500
      3 C15          3.7310     3.0850     3.7020 c3         1 GKG      -0.137400
      4 C17          0.3710     1.4080     1.7220 c5         1 GKG       0.165300
      5 C20          0.0650    -3.7910    -0.6410 c3         1 GKG      -0.078400
      6 C21         -2.1720    -4.5110    -1.7920 c3         1 GKG      -0.068400
      7 C22         -7.4910     2.9100    -1.0790 cx         1 GKG      -0.401000
      8 C24         -8.0010     3.5970    -2.3340 cx         1 GKG      -0.067900
      9 C26          5.6450    -2.2040     0.1600 c3         1 GKG       0.168000
     10 C28          6.6330    -2.7100     1.2750 c3         1 GKG       0.301000
     11 C01          2.4400     2.5460     1.5300 ca         1 GKG       0.553300
     12 C02         -0.7520     1.1630     2.7680 c5         1 GKG      -0.088400
     13 C03         -4.4850    -4.0850    -0.6860 c3         1 GKG      -0.056200
     14 C04         -5.7900    -3.3160    -0.8180 c2         1 GKG      -0.187200
     15 C05         -4.9320    -0.3440     1.1700 cx         1 GKG      -0.054600
     16 C06         -2.4350    -0.1190     1.3070 c          1 GKG       0.583100
     17 C07         -5.1900     0.6100    -0.0080 c          1 GKG       0.684100
     18 C08          1.0550     0.0090     1.6550 c5         1 GKG       0.080000
     19 C09          0.7210    -2.6450     0.1740 c3         1 GKG       0.053700
     20 C11         -3.6560    -4.1070    -1.9970 c3         1 GKG      -0.071400
     21 C12         -6.2250    -2.3160    -0.0260 c2         1 GKG      -0.193200
     22 C14         -6.1530    -0.6790     2.0040 cx         1 GKG      -0.112400
     23 C16          3.6630     2.8910     2.1920 ca         1 GKG       0.321300
     24 C18         -1.3060    -0.2460     2.3800 c5         1 GKG       0.031700
     25 C19         -0.0980    -2.2510     1.4410 c          1 GKG       0.599100
     26 C23         -7.7610     2.1030    -2.3370 cx         1 GKG      -0.067900
     27 C27          5.5970    -0.6460     0.1350 c3         1 GKG      -0.127100
     28 C29          6.0270    -2.7960    -1.2270 c3         1 GKG      -0.127100
     29 C30          3.5660     2.5220    -0.4950 ca         1 GKG       0.302000
     30 C31          3.5760     2.3220    -1.8840 ca         1 GKG      -0.136000
     31 C32          4.7600     2.4260    -2.6260 ca         1 GKG       0.157100
     32 C33          5.8490     2.2750    -4.8360 c3         1 GKG       0.147900
     33 C34          5.9660     2.7420    -1.9690 ca         1 GKG      -0.193000
     34 C35          5.9730     2.9500    -0.5790 ca         1 GKG      -0.027000
     35 C36          4.7920     2.8430     0.1780 ca         1 GKG       0.161000
     36 C37         -8.4210     2.7620     0.1310 c3         1 GKG      -0.041100
     37 F53          7.9040    -2.3060     1.0340 f          1 GKG      -0.109667
     38 F54          6.2820    -2.2400     2.4960 f          1 GKG      -0.109667
     39 F55          6.6450    -4.0630     1.3490 f          1 GKG      -0.109667
     40 N38         -0.1040    -0.8930     1.7990 n          1 GKG      -0.394800
     41 N39         -3.6810    -0.1910     1.9040 ns         1 GKG      -0.485900
     42 N40         -5.3550     1.8960     0.3900 ns         1 GKG      -0.575300
     43 N41          2.1300    -2.9180     0.5240 ns         1 GKG      -0.502900
     44 N42          2.3940     2.3890     0.1780 nb         1 GKG      -0.741000
     45 N43          4.8390     3.0370     1.5220 nb         1 GKG      -0.614000
     46 O44          1.2890     2.3860     2.2980 os         1 GKG      -0.452300
     47 O45         -0.8210    -3.0440     2.0340 o          1 GKG      -0.603100
     48 O46         -2.2790    -0.0320     0.0970 o          1 GKG      -0.555100
     49 O47         -4.8690     3.1880    -1.7480 o          1 GKG      -0.524000
     50 O48         -5.7040     4.3900     0.3300 o          1 GKG      -0.524000
     51 O49          3.1120    -1.8050    -1.2130 o          1 GKG      -0.528000
     52 O50          4.3310    -2.7070     0.5390 os         1 GKG      -0.469100
     53 O51          4.6900     2.2080    -3.9860 os         1 GKG      -0.333100
     54 O56         -5.2450     0.2570    -1.1760 o          1 GKG      -0.547100
     55 S52         -5.7160     3.2180    -0.5500 s6         1 GKG       1.256800
     56 H101        -1.8950    -2.8910    -0.3890 hc         1 GKG       0.052200
     57 H102        -1.1830    -2.5900    -1.9540 hc         1 GKG       0.052200
     58 H131        -4.9550    -2.5030     1.7240 hc         1 GKG       0.097700
     59 H151         3.4540     2.1610     4.2230 hc         1 GKG       0.058033
     60 H152         4.7370     3.3670     4.0350 hc         1 GKG       0.058033
     61 H153         3.0410     3.8730     4.0230 hc         1 GKG       0.058033
     62 H171        -0.0300     1.7380     0.7520 h1         1 GKG       0.094700
     63 H201        -0.0350    -4.6800    -0.0070 hc         1 GKG       0.056200
     64 H202         0.7150    -4.0660    -1.4810 hc         1 GKG       0.056200
     65 H212        -1.7380    -4.8040    -2.7560 hc         1 GKG       0.038200
     66 H211        -2.1270    -5.3940    -1.1430 hc         1 GKG       0.038200
     67 H241        -9.0330     3.9410    -2.3520 hc         1 GKG       0.091700
     68 H242        -7.3130     4.2170    -2.9050 hc         1 GKG       0.091700
     69 H021        -0.3400     1.1430     3.7830 hc         1 GKG       0.072700
     70 H022        -1.5220     1.9430     2.7490 hc         1 GKG       0.072700
     71 H032        -3.8780    -3.6700     0.1240 hc         1 GKG       0.051200
     72 H031        -4.6970    -5.1200    -0.3930 hc         1 GKG       0.051200
     73 H041        -6.4080    -3.6420    -1.6570 ha         1 GKG       0.169000
     74 H081         1.5880    -0.1290     0.7070 h1         1 GKG       0.076200
     75 H082         1.7640    -0.1390     2.4800 h1         1 GKG       0.076200
     76 H091         0.7010    -1.7580    -0.4730 h1         1 GKG       0.100700
     77 H111        -3.6930    -3.1170    -2.4700 hc         1 GKG       0.043200
     78 H112        -4.1270    -4.8060    -2.6990 hc         1 GKG       0.043200
     79 H121        -7.1900    -1.8550    -0.2450 ha         1 GKG       0.188000
     80 H142        -7.1170    -0.2930     1.6820 hc         1 GKG       0.083700
     81 H141        -6.0380    -0.7480     3.0830 hc         1 GKG       0.083700
     82 H181        -1.6860    -0.7930     3.2520 h1         1 GKG       0.078700
     83 H231        -6.9160     1.7320    -2.9130 hc         1 GKG       0.091700
     84 H232        -8.6330     1.4520    -2.3540 hc         1 GKG       0.091700
     85 H272         5.1190    -0.2540     1.0410 hc         1 GKG       0.067533
     86 H273         6.6080    -0.2270     0.0790 hc         1 GKG       0.067533
     87 H271         5.0490    -0.2660    -0.7330 hc         1 GKG       0.067533
     88 H292         5.4420    -2.3520    -2.0400 hc         1 GKG       0.067533
     89 H293         7.0820    -2.6030    -1.4540 hc         1 GKG       0.067533
     90 H291         5.8700    -3.8810    -1.2460 hc         1 GKG       0.067533
     91 H311         2.6500     2.0740    -2.3920 ha         1 GKG       0.156000
     92 H332         6.3030     3.2740    -4.7990 h1         1 GKG       0.043033
     93 H333         6.6000     1.5350    -4.5310 h1         1 GKG       0.043033
     94 H331         5.5700     2.0670    -5.8760 h1         1 GKG       0.043033
     95 H341         6.9010     2.8310    -2.5140 ha         1 GKG       0.123000
     96 H351         6.9080     3.1930    -0.0790 ha         1 GKG       0.131000
     97 H372        -9.4630     2.6140    -0.1810 hc         1 GKG       0.047367
     98 H371        -8.1420     1.8990     0.7480 hc         1 GKG       0.047367
     99 H373        -8.3950     3.6550     0.7670 hc         1 GKG       0.047367
    100 H391        -3.6920    -0.2570     2.9170 hn         1 GKG       0.322500
    101 H401        -5.3070     2.1220     1.3670 hn         1 GKG       0.346500
    102 H411         2.3490    -3.4170     1.3780 hn         1 GKG       0.337500
    103 C25          3.2000    -2.4540    -0.1860 c          1 GKG       0.654100
@<TRIPOS>BOND
     1     1     5 1   
     2     1     6 1   
     3     1    56 1   
     4     1    57 1   
     5     2    15 1   
     6     2    21 1   
     7     2    22 1   
     8     2    58 1   
     9     3    23 1   
    10     3    59 1   
    11     3    60 1   
    12     3    61 1   
    13     4    12 1   
    14     4    18 1   
    15     4    46 1   
    16     4    62 1   
    17     5    19 1   
    18     5    63 1   
    19     5    64 1   
    20     6    20 1   
    21     6    65 1   
    22     6    66 1   
    23     7     8 1   
    24     7    26 1   
    25     7    36 1   
    26     7    55 1   
    27     8    26 1   
    28     8    67 1   
    29     8    68 1   
    30     9    10 1   
    31     9    27 1   
    32     9    28 1   
    33     9    52 1   
    34    10    37 1   
    35    10    38 1   
    36    10    39 1   
    37    11    23 ar  
    38    11    44 ar  
    39    11    46 1   
    40    12    24 1   
    41    12    69 1   
    42    12    70 1   
    43    13    14 1   
    44    13    20 1   
    45    13    71 1   
    46    13    72 1   
    47    14    21 2   
    48    14    73 1   
    49    15    17 1   
    50    15    22 1   
    51    15    41 1   
    52    16    24 1   
    53    16    41 1   
    54    16    48 2   
    55    17    42 1   
    56    17    54 2   
    57    18    40 1   
    58    18    74 1   
    59    18    75 1   
    60    19    25 1   
    61    19    43 1   
    62    19    76 1   
    63    20    77 1   
    64    20    78 1   
    65    21    79 1   
    66    22    80 1   
    67    22    81 1   
    68    23    45 ar  
    69    24    40 1   
    70    24    82 1   
    71    25    40 1   
    72    25    47 2   
    73    26    83 1   
    74    26    84 1   
    75    27    85 1   
    76    27    86 1   
    77    27    87 1   
    78    28    88 1   
    79    28    89 1   
    80    28    90 1   
    81    29    30 ar  
    82    29    35 ar  
    83    29    44 ar  
    84    30    31 ar  
    85    30    91 1   
    86    31    33 ar  
    87    31    53 1   
    88    32    53 1   
    89    32    92 1   
    90    32    93 1   
    91    32    94 1   
    92    33    34 ar  
    93    33    95 1   
    94    34    35 ar  
    95    34    96 1   
    96    35    45 ar  
    97    36    97 1   
    98    36    98 1   
    99    36    99 1   
   100    41   100 1   
   101    42    55 1   
   102    42   101 1   
   103    43   102 1   
   104    43   103 1   
   105    49    55 2   
   106    50    55 2   
   107    51   103 2   
   108    52   103 1   
@<TRIPOS>SUBSTRUCTURE
     1 GKG         1 TEMP              0 ****  ****    0 ROOT
