@<TRIPOS>MOLECULE
GKG
  103   108     1     0     0
SMALL
bcc


@<TRIPOS>ATOM
      1 C10         -0.9860    -3.6960    -1.6680 c3         1 GKG      -0.084400
      2 C13         -5.1990    -2.1310     0.4220 cx         1 GKG      -0.031500
      3 C15          2.6550     4.3170     2.7060 c3         1 GKG      -0.137400
      4 C17          0.1240     1.3330     1.1720 c5         1 GKG       0.142100
      5 C20          0.1330    -4.0330    -0.6870 c3         1 GKG      -0.078400
      6 C21         -1.7420    -4.8990    -2.2350 c3         1 GKG      -0.068400
      7 C22         -7.0450     3.4850     0.1760 cx         1 GKG      -0.290200
      8 C24         -7.6790     4.5100    -0.7250 cx         1 GKG      -0.067900
      9 C26          5.3330    -2.0910     0.8600 c3         1 GKG       0.144800
     10 C28          6.0440    -2.5490     2.1420 c3         1 GKG       0.664900
     11 C01          2.0850     2.6260     0.8820 ca         1 GKG       0.553300
     12 C02         -0.9570     1.1450     2.2270 c5         1 GKG      -0.088400
     13 C03         -4.0590    -4.3680    -1.3760 c3         1 GKG      -0.056200
     14 C04         -5.2950    -3.5590    -1.6180 c2         1 GKG      -0.137200
     15 C05         -5.0040    -0.6910     0.8920 cx         1 GKG      -0.054600
     16 C06         -2.6270    -0.3750     1.0820 c          1 GKG       0.650100
     17 C07         -5.4840     0.4680     0.0780 c          1 GKG       0.751100
     18 C08          0.7810    -0.0440     1.0710 c5         1 GKG       0.080000
     19 C09          0.6160    -2.7690     0.0170 c3         1 GKG       0.053700
     20 C11         -3.1710    -4.5110    -2.6200 c3         1 GKG      -0.071400
     21 C12         -5.7740    -2.5650    -0.8680 c2         1 GKG      -0.143200
     22 C14         -6.0570    -1.5700     1.5070 cx         1 GKG      -0.112400
     23 C16          2.9800     3.6190     1.4270 ca         1 GKG       0.321300
     24 C18         -1.4310    -0.3000     2.0300 c5         1 GKG       0.031700
     25 C19         -0.4420    -2.2270     0.9860 c          1 GKG       0.666100
     26 C23         -8.0450     3.0710    -0.8570 cx         1 GKG      -0.067900
     27 C27          5.3240    -0.5660     0.7970 c3         1 GKG      -0.127100
     28 C29          6.0210    -2.7030    -0.3560 c3         1 GKG      -0.127100
     29 C30          3.4510     2.2940    -0.8940 ca         1 GKG       0.367300
     30 C31          3.7510     1.6250    -2.0840 ca         1 GKG      -0.219300
     31 C32          4.9340     1.8900    -2.7460 ca         1 GKG       0.157100
     32 C33          6.3520     1.4330    -4.5990 c3         1 GKG       0.124700
     33 C34          5.8420     2.8360    -2.2210 ca         1 GKG      -0.211000
     34 C35          5.5490     3.4960    -1.0540 ca         1 GKG      -0.110300
     35 C36          4.3530     3.2410    -0.3650 ca         1 GKG       0.226300
     36 C37         -7.3780     3.4440     1.6450 c3         1 GKG      -0.041100
     37 F53          7.3140    -2.1310     2.1670 f          1 GKG      -0.230967
     38 F54          5.4520    -2.0730     3.2420 f          1 GKG      -0.230967
     39 F55          6.0660    -3.8800     2.2570 f          1 GKG      -0.230967
     40 N38         -0.3000    -0.9520     1.3990 n          1 GKG      -0.461800
     41 N39         -3.8390    -0.4540     1.6790 ns         1 GKG      -0.552900
     42 N40         -5.0260     1.6810     0.5340 ns         1 GKG      -0.642300
     43 N41          1.8710    -2.9060     0.7180 ns         1 GKG      -0.569900
     44 N42          2.2980     2.0140    -0.2310 nb         1 GKG      -0.741000
     45 N43          4.0770     3.8950     0.7940 nb         1 GKG      -0.614000
     46 O44          1.0060     2.3570     1.6150 os         1 GKG      -0.429100
     47 O45         -1.3960    -2.8970     1.3510 o          1 GKG      -0.603100
     48 O46         -2.5020    -0.3060    -0.1240 o          1 GKG      -0.555100
     49 O47         -5.1290     3.0770    -1.6010 o          1 GKG      -0.594800
     50 O48         -4.5240     4.0850     0.6130 o          1 GKG      -0.594800
     51 O49          3.1400    -1.8870    -0.8660 o          1 GKG      -0.577000
     52 O50          4.0260    -2.6330     1.0790 os         1 GKG      -0.445900
     53 O51          5.1540     1.2060    -3.8810 os         1 GKG      -0.309900
     54 O56         -6.2450     0.3700    -0.8550 o          1 GKG      -0.547100
     55 S52         -5.3400     3.1730    -0.1700 s6         1 GKG       1.287600
     56 H101        -1.7010    -3.0410    -1.1670 hc         1 GKG       0.052200
     57 H102        -0.5770    -3.1040    -2.4930 hc         1 GKG       0.052200
     58 H131        -4.3790    -2.7400     0.7830 hc         1 GKG       0.097700
     59 H151         2.5720     3.6110     3.5340 hc         1 GKG       0.058033
     60 H152         3.4350     5.0370     2.9420 hc         1 GKG       0.058033
     61 H153         1.7020     4.8460     2.6400 hc         1 GKG       0.058033
     62 H171        -0.3040     1.6110     0.2050 h1         1 GKG       0.094700
     63 H201        -0.2090    -4.7660     0.0460 hc         1 GKG       0.056200
     64 H202         0.9810    -4.4790    -1.2130 hc         1 GKG       0.056200
     65 H212        -1.2080    -5.3040    -3.0980 hc         1 GKG       0.038200
     66 H211        -1.7810    -5.7050    -1.4940 hc         1 GKG       0.038200
     67 H241        -8.3670     5.1930    -0.2430 hc         1 GKG       0.091700
     68 H242        -7.0890     4.9550    -1.5160 hc         1 GKG       0.091700
     69 H021        -0.5180     1.2430     3.2210 hc         1 GKG       0.072700
     70 H022        -1.7640     1.8730     2.1480 hc         1 GKG       0.072700
     71 H032        -3.4740    -3.9370    -0.5620 hc         1 GKG       0.051200
     72 H031        -4.3400    -5.3730    -1.0420 hc         1 GKG       0.051200
     73 H041        -5.8600    -3.8250    -2.5080 ha         1 GKG       0.119000
     74 H081         1.1840    -0.2220     0.0790 h1         1 GKG       0.076200
     75 H082         1.5990    -0.1310     1.7940 h1         1 GKG       0.076200
     76 H091         0.7670    -2.0100    -0.7530 h1         1 GKG       0.100700
     77 H111        -3.1500    -3.5700    -3.1780 hc         1 GKG       0.043200
     78 H112        -3.6080    -5.2530    -3.2930 hc         1 GKG       0.043200
     79 H121        -6.6900    -2.0820    -1.1810 ha         1 GKG       0.138000
     80 H142        -7.0860    -1.3350     1.2650 hc         1 GKG       0.083700
     81 H141        -5.8960    -1.8930     2.5290 hc         1 GKG       0.083700
     82 H181        -1.6810    -0.7590     2.9890 h1         1 GKG       0.078700
     83 H231        -7.7050     2.5410    -1.7350 hc         1 GKG       0.091700
     84 H232        -8.9990     2.7350    -0.4700 hc         1 GKG       0.091700
     85 H272         4.7920    -0.1260     1.6410 hc         1 GKG       0.067533
     86 H273         6.3450    -0.1850     0.8000 hc         1 GKG       0.067533
     87 H271         4.8540    -0.2260    -0.1220 hc         1 GKG       0.067533
     88 H292         5.5940    -2.3030    -1.2710 hc         1 GKG       0.067533
     89 H293         7.0820    -2.4570    -0.3580 hc         1 GKG       0.067533
     90 H291         5.9220    -3.7880    -0.3760 hc         1 GKG       0.067533
     91 H311         3.0580     0.8870    -2.4690 ha         1 GKG       0.174000
     92 H332         6.4360     2.4690    -4.9390 h1         1 GKG       0.043033
     93 H333         7.2370     1.1790    -4.0100 h1         1 GKG       0.043033
     94 H331         6.3150     0.7830    -5.4700 h1         1 GKG       0.043033
     95 H341         6.7740     3.0530    -2.7250 ha         1 GKG       0.141000
     96 H351         6.2420     4.2210    -0.6480 ha         1 GKG       0.149000
     97 H372        -8.4310     3.6890     1.7760 hc         1 GKG       0.047367
     98 H371        -7.2170     2.4530     2.0670 hc         1 GKG       0.047367
     99 H373        -6.7950     4.1680     2.2120 hc         1 GKG       0.047367
    100 H391        -3.8970    -0.5750     2.6790 hn         1 GKG       0.322500
    101 H401        -4.4730     1.7160     1.3820 hn         1 GKG       0.346500
    102 H411         1.8880    -3.3970     1.5990 hn         1 GKG       0.337500
    103 C25          3.0260    -2.4290     0.2100 c          1 GKG       0.770100
@<TRIPOS>BOND
     1     1     5 1   
     2     1     6 1   
     3     1    56 1   
     4     1    57 1   
     5     2    15 1   
     6     2    21 1   
     7     2    22 1   
     8     2    58 1   
     9     3    23 1   
    10     3    59 1   
    11     3    60 1   
    12     3    61 1   
    13     4    12 1   
    14     4    18 1   
    15     4    46 1   
    16     4    62 1   
    17     5    19 1   
    18     5    63 1   
    19     5    64 1   
    20     6    20 1   
    21     6    65 1   
    22     6    66 1   
    23     7     8 1   
    24     7    26 1   
    25     7    36 1   
    26     7    55 1   
    27     8    26 1   
    28     8    67 1   
    29     8    68 1   
    30     9    10 1   
    31     9    27 1   
    32     9    28 1   
    33     9    52 1   
    34    10    37 1   
    35    10    38 1   
    36    10    39 1   
    37    11    23 ar  
    38    11    44 ar  
    39    11    46 1   
    40    12    24 1   
    41    12    69 1   
    42    12    70 1   
    43    13    14 1   
    44    13    20 1   
    45    13    71 1   
    46    13    72 1   
    47    14    21 2   
    48    14    73 1   
    49    15    17 1   
    50    15    22 1   
    51    15    41 1   
    52    16    24 1   
    53    16    41 1   
    54    16    48 2   
    55    17    42 1   
    56    17    54 2   
    57    18    40 1   
    58    18    74 1   
    59    18    75 1   
    60    19    25 1   
    61    19    43 1   
    62    19    76 1   
    63    20    77 1   
    64    20    78 1   
    65    21    79 1   
    66    22    80 1   
    67    22    81 1   
    68    23    45 ar  
    69    24    40 1   
    70    24    82 1   
    71    25    40 1   
    72    25    47 2   
    73    26    83 1   
    74    26    84 1   
    75    27    85 1   
    76    27    86 1   
    77    27    87 1   
    78    28    88 1   
    79    28    89 1   
    80    28    90 1   
    81    29    30 ar  
    82    29    35 ar  
    83    29    44 ar  
    84    30    31 ar  
    85    30    91 1   
    86    31    33 ar  
    87    31    53 1   
    88    32    53 1   
    89    32    92 1   
    90    32    93 1   
    91    32    94 1   
    92    33    34 ar  
    93    33    95 1   
    94    34    35 ar  
    95    34    96 1   
    96    35    45 ar  
    97    36    97 1   
    98    36    98 1   
    99    36    99 1   
   100    41   100 1   
   101    42    55 1   
   102    42   101 1   
   103    43   102 1   
   104    43   103 1   
   105    49    55 2   
   106    50    55 2   
   107    51   103 2   
   108    52   103 1   
@<TRIPOS>SUBSTRUCTURE
     1 GKG         1 TEMP              0 ****  ****    0 ROOT
