@<TRIPOS>MOLECULE
GKH
   62    67     1     0     0
SMALL
bcc


@<TRIPOS>ATOM
      1 C2          -1.8510     3.3980     0.6150 ca         1 GKH       0.708900
      2 C4          -1.9400     1.5440    -0.5540 ca         1 GKH       0.464800
      3 C5          -0.6440     1.7030    -1.0180 ca         1 GKH      -0.234200
      4 C6           0.0250     2.8710    -0.6080 ca         1 GKH       0.777200
      5 N9          -2.3850     0.3820    -1.1210 na         1 GKH      -0.256000
      6 NBO          4.1510     1.3000     0.0100 nc         1 GKH      -0.523100
      7 CAE          5.3020     1.9690    -0.3010 ca         1 GKH       0.052400
      8 CAD          6.2360     1.5870    -1.2660 ca         1 GKH      -0.027000
      9 CAC          7.3590     2.3600    -1.4630 ca         1 GKH      -0.220000
     10 CAB          7.5760     3.5270    -0.7090 ca         1 GKH       0.155100
     11 OAA          8.6690     4.2910    -0.8860 oh         1 GKH      -0.489100
     12 CBP          6.6610     3.9300     0.2540 ca         1 GKH      -0.137000
     13 CAF          5.5360     3.1400     0.4430 ca         1 GKH      -0.023100
     14 SAG          4.2370     3.3640     1.5580 ss         1 GKH      -0.086100
     15 CAH          3.4990     1.8950     0.9510 cd         1 GKH       0.425500
     16 CAI          2.2380     1.4560     1.5080 cf         1 GKH      -0.207600
     17 CAK          0.3100    -0.0750     1.5620 cc         1 GKH       0.466200
     18 NAL         -0.2520    -1.1780     1.1680 nd         1 GKH      -0.627000
     19 SBN         -0.6020     0.7660     2.7800 ss         1 GKH      -0.116300
     20 CBM         -1.7720    -0.4660     2.7470 cc         1 GKH      -0.129400
     21 CAM         -1.4130    -1.4100     1.8320 cd         1 GKH       0.278800
     22 CAN         -2.1870    -2.6350     1.5590 c          1 GKH       0.650600
     23 OBL         -3.1430    -2.9870     2.2060 o          1 GKH      -0.533100
     24 NAO         -1.6880    -3.3470     0.4910 ns         1 GKH      -0.674300
     25 SAP         -2.3630    -4.7430    -0.0900 s6         1 GKH       1.595100
     26 OBJ         -1.6570    -5.0090    -1.3180 o          1 GKH      -0.611800
     27 OBK         -2.4490    -5.7320     0.9480 o          1 GKH      -0.611800
     28 O5          -3.8680    -4.3530    -0.3740 os         1 GKH      -0.543500
     29 C9          -4.7920    -2.1870    -0.9300 c5         1 GKH       0.119100
     30 O4          -3.7300    -1.3840    -0.4150 os         1 GKH      -0.413600
     31 C3          -5.4880    -1.3490    -2.0070 c5         1 GKH       0.090100
     32 O3          -6.5670    -0.6820    -1.4090 oh         1 GKH      -0.576800
     33 C7          -4.3800    -0.3680    -2.3970 c5         1 GKH       0.057100
     34 O2          -4.8180     0.8390    -2.9360 oh         1 GKH      -0.567800
     35 C1          -3.7230    -0.1290    -1.0410 c5         1 GKH       0.265800
     36 C8          -1.3400    -0.1000    -1.8670 cc         1 GKH       0.407700
     37 N7          -0.2870     0.6590    -1.8330 nd         1 GKH      -0.538100
     38 N3          -2.5940     2.3640     0.2630 nb         1 GKH      -0.747000
     39 N1          -0.6110     3.6920     0.2340 nb         1 GKH      -0.831000
     40 N6           1.2450     3.1950    -1.0380 nv         1 GKH      -0.947500
     41 H1          -2.3090     4.1050     1.2980 h5         1 GKH       0.048100
     42 H3           8.0870     2.0630    -2.2090 ha         1 GKH       0.138000
     43 H4           9.2510     3.9000    -1.5480 ho         1 GKH       0.431000
     44 H5           6.8300     4.8290     0.8330 ha         1 GKH       0.161000
     45 H6           1.8370     2.0540     2.3200 ha         1 GKH       0.141000
     46 H8          -2.6450    -0.4400     3.3800 h4         1 GKH       0.202000
     47 H9          -0.8700    -2.9940     0.0030 hn         1 GKH       0.371500
     48 H12         -5.5030    -2.4070    -0.1270 h1         1 GKH       0.121700
     49 H13         -5.8130    -1.9580    -2.8610 h1         1 GKH       0.056700
     50 H14         -6.8250     0.0460    -1.9860 ho         1 GKH       0.426000
     51 H15         -3.6740    -0.8820    -3.0640 h1         1 GKH       0.050700
     52 H16         -4.9320     0.7360    -3.8850 ho         1 GKH       0.419000
     53 H17         -4.2950     0.6090    -0.4680 h2         1 GKH       0.124700
     54 H18         -1.4140    -1.0230    -2.4220 h5         1 GKH       0.064800
     55 H19          1.7780     2.5650    -1.6110 hn         1 GKH       0.454300
     56 H20          1.7070     4.0100    -0.6720 hn         1 GKH       0.454300
     57 C10         -4.2520    -3.4920    -1.4700 c3         1 GKH       0.179400
     58 CAJ          1.5780     0.3860     1.0500 ce         1 GKH      -0.150800
     59 H2           6.0780     0.6900    -1.8490 ha         1 GKH       0.153000
     60 H7           1.9830    -0.2050     0.2370 ha         1 GKH       0.176000
     61 H10         -3.4260    -3.3400    -2.1680 h1         1 GKH       0.066700
     62 H11         -5.0390    -4.0320    -1.9940 h1         1 GKH       0.066700
@<TRIPOS>BOND
     1     1    38 ar  
     2     1    39 ar  
     3     1    41 1   
     4     2     3 ar  
     5     2     5 1   
     6     2    38 ar  
     7     3     4 ar  
     8     3    37 1   
     9     4    39 ar  
    10     4    40 1   
    11     5    35 1   
    12     5    36 1   
    13     6     7 1   
    14     6    15 2   
    15     7     8 ar  
    16     7    13 ar  
    17     8     9 ar  
    18     8    59 1   
    19     9    10 ar  
    20     9    42 1   
    21    10    11 1   
    22    10    12 ar  
    23    11    43 1   
    24    12    13 ar  
    25    12    44 1   
    26    13    14 1   
    27    14    15 1   
    28    15    16 1   
    29    16    45 1   
    30    16    58 2   
    31    17    18 2   
    32    17    19 1   
    33    17    58 1   
    34    18    21 1   
    35    19    20 1   
    36    20    21 2   
    37    20    46 1   
    38    21    22 1   
    39    22    23 2   
    40    22    24 1   
    41    24    25 1   
    42    24    47 1   
    43    25    26 2   
    44    25    27 2   
    45    25    28 1   
    46    28    57 1   
    47    29    30 1   
    48    29    31 1   
    49    29    48 1   
    50    29    57 1   
    51    30    35 1   
    52    31    32 1   
    53    31    33 1   
    54    31    49 1   
    55    32    50 1   
    56    33    34 1   
    57    33    35 1   
    58    33    51 1   
    59    34    52 1   
    60    35    53 1   
    61    36    37 2   
    62    36    54 1   
    63    40    55 1   
    64    40    56 1   
    65    57    61 1   
    66    57    62 1   
    67    58    60 1   
@<TRIPOS>SUBSTRUCTURE
     1 GKH         1 TEMP              0 ****  ****    0 ROOT
