@<TRIPOS>MOLECULE
GKH
   62    67     1     0     0
SMALL
No Charge or Current Charge


@<TRIPOS>ATOM
      1 C2          -3.1550     3.0350     1.7100 ca         1 GKH       0.182900
      2 C4          -2.6460     1.7370    -0.1030 ca         1 GKH       0.136500
      3 C5          -1.4050     2.3180    -0.1680 ca         1 GKH      -0.103600
      4 C6          -1.0860     3.3140     0.7760 ca         1 GKH       0.448900
      5 N9          -2.6910     0.8510    -1.1420 na         1 GKH      -0.285300
      6 NBO          4.2740     1.1240    -0.4300 nc         1 GKH      -0.523100
      7 CAE          5.4610     1.7380    -0.8210 ca         1 GKH       0.052400
      8 CAD          6.1990     1.3560    -1.9560 ca         1 GKH      -0.009000
      9 CAC          7.3940     2.0360    -2.2760 ca         1 GKH      -0.202000
     10 CAB          7.8440     3.0940    -1.4620 ca         1 GKH       0.155100
     11 OAA          8.9970     3.7520    -1.7700 oh         1 GKH      -0.528100
     12 CBP          7.1040     3.4730    -0.3290 ca         1 GKH      -0.119000
     13 CAF          5.9200     2.7790    -0.0340 ca         1 GKH      -0.150000
     14 SAG          4.8580     3.0930     1.3240 ss         1 GKH       0.040800
     15 CAH          3.8680     1.7540     0.6840 cd         1 GKH       0.425500
     16 CAI          2.6320     1.3390     1.3520 cf         1 GKH      -0.257600
     17 CAK          0.5480    -0.0930     1.6510 cc         1 GKH       0.466200
     18 NAL         -0.0660    -1.2170     1.3150 nd         1 GKH      -0.627000
     19 SBN         -0.1380     0.7940     2.9880 ss         1 GKH       0.028600
     20 CBM         -1.3840    -0.4150     3.0630 cc         1 GKH      -0.191000
     21 CAM         -1.1910    -1.4110     2.1280 cd         1 GKH       0.213500
     22 CAN         -2.1470    -2.5740     2.0570 c          1 GKH       0.583600
     23 OBL         -3.1260    -2.7120     2.7790 o          1 GKH      -0.533100
     24 NAO         -1.7950    -3.4720     1.0970 ns         1 GKH      -0.607300
     25 SAP         -2.6710    -4.7600     0.5400 s6         1 GKH       1.453500
     26 OBJ         -1.9260    -5.3540    -0.5750 o          1 GKH      -0.541000
     27 OBK         -3.1150    -5.5690     1.6790 o          1 GKH      -0.541000
     28 O5          -3.9520    -3.9220    -0.0480 os         1 GKH      -0.566700
     29 C9          -4.7540    -2.0870    -1.3970 c5         1 GKH       0.142300
     30 O4          -4.1470    -0.9730    -0.6720 os         1 GKH      -0.460000
     31 C3          -5.0100    -1.5530    -2.8490 c5         1 GKH       0.113300
     32 O3          -6.2500    -0.8410    -2.9700 oh         1 GKH      -0.699000
     33 C7          -3.8040    -0.5860    -2.9980 c5         1 GKH       0.080300
     34 O2          -3.9690     0.3150    -4.1100 oh         1 GKH      -0.690000
     35 C1          -3.8670     0.1050    -1.5940 c5         1 GKH       0.318300
     36 C8          -1.4490     0.9020    -1.7860 cc         1 GKH       0.407700
     37 N7          -0.6320     1.8050    -1.2140 nd         1 GKH      -0.538100
     38 N3          -3.5510     2.0790     0.8350 nb         1 GKH      -0.221000
     39 N1          -1.9610     3.6760     1.7260 nb         1 GKH      -0.305000
     40 N6           0.1080     3.9610     0.7810 nv         1 GKH      -1.057900
     41 H1          -3.8730     3.3210     2.4770 h5         1 GKH       0.048100
     42 H3           7.9590     1.7360    -3.1550 ha         1 GKH       0.120000
     43 H4           9.3720     3.3540    -2.5840 ho         1 GKH       0.470000
     44 H5           7.4460     4.2880     0.3050 ha         1 GKH       0.143000
     45 H6           2.4080     1.9170     2.2480 ha         1 GKH       0.191000
     46 H8          -2.1710    -0.3280     3.8010 h4         1 GKH       0.184000
     47 H9          -0.9910    -3.2850     0.5230 hn         1 GKH       0.371500
     48 H12         -5.6980    -2.3740    -0.9150 h1         1 GKH       0.121700
     49 H13         -4.9660    -2.3650    -3.5890 h1         1 GKH       0.056700
     50 H14         -6.0770    -0.1380    -3.6440 ho         1 GKH       0.525000
     51 H15         -2.8690    -1.1550    -3.1030 h1         1 GKH       0.050700
     52 H16         -3.5770    -0.1140    -4.9100 ho         1 GKH       0.518000
     53 H17         -4.7030     0.8180    -1.5790 h2         1 GKH       0.124700
     54 H18         -1.2130     0.2990    -2.6540 h5         1 GKH       0.064800
     55 H19          0.8460     3.5810     0.1950 hn         1 GKH       0.509500
     56 H20          0.3790     4.4920     1.6030 hn         1 GKH       0.509500
     57 C10         -3.7870    -3.2990    -1.3350 c3         1 GKH       0.202600
     58 CAJ          1.7710     0.3370     0.9840 ce         1 GKH      -0.200800
     59 H2           5.8490     0.5390    -2.5830 ha         1 GKH       0.135000
     60 H7           1.9990    -0.2540     0.0970 ha         1 GKH       0.226000
     61 H10         -2.7620    -2.9340    -1.4940 h1         1 GKH       0.066700
     62 H11         -4.0260    -4.0100    -2.1370 h1         1 GKH       0.066700
@<TRIPOS>BOND
     1     1    38 ar  
     2     1    39 ar  
     3     1    41 1   
     4     2     3 ar  
     5     2     5 1   
     6     2    38 ar  
     7     3     4 ar  
     8     3    37 1   
     9     4    39 ar  
    10     4    40 1   
    11     5    35 1   
    12     5    36 1   
    13     6     7 1   
    14     6    15 2   
    15     7     8 ar  
    16     7    13 ar  
    17     8     9 ar  
    18     8    59 1   
    19     9    10 ar  
    20     9    42 1   
    21    10    11 1   
    22    10    12 ar  
    23    11    43 1   
    24    12    13 ar  
    25    12    44 1   
    26    13    14 1   
    27    14    15 1   
    28    15    16 1   
    29    16    45 1   
    30    16    58 2   
    31    17    18 2   
    32    17    19 1   
    33    17    58 1   
    34    18    21 1   
    35    19    20 1   
    36    20    21 2   
    37    20    46 1   
    38    21    22 1   
    39    22    23 2   
    40    22    24 1   
    41    24    25 1   
    42    24    47 1   
    43    25    26 2   
    44    25    27 2   
    45    25    28 1   
    46    28    57 1   
    47    29    30 1   
    48    29    31 1   
    49    29    48 1   
    50    29    57 1   
    51    30    35 1   
    52    31    32 1   
    53    31    33 1   
    54    31    49 1   
    55    32    50 1   
    56    33    34 1   
    57    33    35 1   
    58    33    51 1   
    59    34    52 1   
    60    35    53 1   
    61    36    37 2   
    62    36    54 1   
    63    40    55 1   
    64    40    56 1   
    65    57    61 1   
    66    57    62 1   
    67    58    60 1   
@<TRIPOS>SUBSTRUCTURE
     1 GKH         1 TEMP              0 ****  ****    0 ROOT
