@<TRIPOS>MOLECULE
GKI
   53    55     1     0     0
SMALL
No Charge or Current Charge


@<TRIPOS>ATOM
      1 C11          8.1660     8.9780   -10.9560 c          1 GKI       0.614700
      2 C12          9.1810     9.5800   -11.9290 c3         1 GKI      -0.191100
      3 C15         10.4440     5.4050    -7.9720 cc         1 GKI       0.410500
      4 C18         10.8360     3.8340    -6.4930 cd         1 GKI       0.721300
      5 N20         10.5390     2.9460    -5.4510 nh         1 GKI      -0.757300
      6 C25          9.1180     2.6750    -5.0460 c6         1 GKI       0.174800
      7 C16         11.7730     5.1790    -8.2640 cd         1 GKI      -0.272000
      8 C01         13.1160     8.2190   -12.7000 c3         1 GKI      -0.088100
      9 C02         12.9150     6.8250   -12.0580 c3         1 GKI      -0.061700
     10 C03         13.2320     5.7050   -13.0740 c3         1 GKI      -0.088100
     11 C04         11.4980     6.6380   -11.4520 c3         1 GKI      -0.075400
     12 C06          9.8160     7.2890    -9.6470 cd         1 GKI      -0.067300
     13 C07          9.5840     6.3580    -8.6480 cc         1 GKI      -0.222500
     14 C09          7.5890     7.3670    -9.0950 cc         1 GKI      -0.073300
     15 C10          8.5430     7.9140    -9.9420 cd         1 GKI      -0.259600
     16 C21         11.5100     1.8750    -5.0530 c6         1 GKI       0.174800
     17 C22         11.3100     1.3840    -3.5820 c6         1 GKI       0.141800
     18 C24          8.9890     2.1640    -3.5750 c6         1 GKI       0.141800
     19 N08          8.2440     6.4340    -8.3100 na         1 GKI      -0.078000
     20 N19          9.9070     4.6370    -6.9690 nc         1 GKI      -0.762000
     21 N23          9.8970     1.0190    -3.2780 n7         1 GKI      -0.842400
     22 O13          7.0170     9.3970   -11.0430 o          1 GKI      -0.563100
     23 S17         12.4370     3.9370    -7.2170 ss         1 GKI      -0.103400
     24 H123         8.7010    10.2080   -12.6890 hc         1 GKI       0.057033
     25 H121         9.8990    10.1780   -11.3600 hc         1 GKI       0.057033
     26 H122         9.7800     8.7920   -12.3900 hc         1 GKI       0.057033
     27 H142         5.5750     7.4150    -9.8800 hc         1 GKI       0.055700
     28 H143         5.6680     6.9980    -8.1640 hc         1 GKI       0.055700
     29 H141         5.9190     8.6720    -8.6710 hc         1 GKI       0.055700
     30 H252         8.4990     3.5790    -5.1370 h1         1 GKI       0.053950
     31 H251         8.6840     1.9230    -5.7210 h1         1 GKI       0.053950
     32 H161        12.4060     5.6190    -9.0150 h4         1 GKI       0.168000
     33 H012        13.0410     9.0170   -11.9520 hc         1 GKI       0.032367
     34 H011        14.1100     8.2930   -13.1580 hc         1 GKI       0.032367
     35 H013        12.3660     8.4030   -13.4790 hc         1 GKI       0.032367
     36 H021        13.6420     6.7310   -11.2410 hc         1 GKI       0.040700
     37 H033        13.1480     4.7180   -12.6030 hc         1 GKI       0.032367
     38 H032        12.5390     5.7400   -13.9230 hc         1 GKI       0.032367
     39 H031        14.2530     5.8080   -13.4600 hc         1 GKI       0.032367
     40 H041        10.7480     6.7450   -12.2440 hc         1 GKI       0.043200
     41 H042        11.4020     5.6060   -11.0940 hc         1 GKI       0.043200
     42 H052        11.9450     7.5690    -9.5250 hc         1 GKI       0.048200
     43 H051        11.2040     8.6320   -10.6180 hc         1 GKI       0.048200
     44 H211        11.4050     1.0150    -5.7310 h1         1 GKI       0.053950
     45 H212        12.5480     2.2260    -5.1420 h1         1 GKI       0.053950
     46 H221        11.9670     0.5210    -3.3960 h1         1 GKI       0.065700
     47 H222        11.6310     2.1860    -2.8990 h1         1 GKI       0.065700
     48 H241         9.2210     2.9970    -2.8940 h1         1 GKI       0.065700
     49 H242         7.9460     1.8730    -3.3840 h1         1 GKI       0.065700
     50 H081         7.8090     5.8630    -7.5920 hn         1 GKI       0.362000
     51 H231         9.6310     0.2340    -3.8870 hn         1 GKI       0.407000
     52 C14          6.1090     7.6280    -8.9460 c3         1 GKI      -0.031800
     53 C05         11.1570     7.5980   -10.2820 c3         1 GKI      -0.012100
@<TRIPOS>BOND
     1     1     2 1   
     2     1    15 1   
     3     1    22 2   
     4     2    24 1   
     5     2    25 1   
     6     2    26 1   
     7     3     7 2   
     8     3    13 1   
     9     3    20 1   
    10     4     5 1   
    11     4    20 2   
    12     4    23 1   
    13     5     6 1   
    14     5    16 1   
    15     6    18 1   
    16     6    30 1   
    17     6    31 1   
    18     7    23 1   
    19     7    32 1   
    20     8     9 1   
    21     8    33 1   
    22     8    34 1   
    23     8    35 1   
    24     9    10 1   
    25     9    11 1   
    26     9    36 1   
    27    10    37 1   
    28    10    38 1   
    29    10    39 1   
    30    11    40 1   
    31    11    41 1   
    32    11    53 1   
    33    12    13 2   
    34    12    15 1   
    35    12    53 1   
    36    13    19 1   
    37    14    15 2   
    38    14    19 1   
    39    14    52 1   
    40    16    17 1   
    41    16    44 1   
    42    16    45 1   
    43    17    21 1   
    44    17    46 1   
    45    17    47 1   
    46    18    21 1   
    47    18    48 1   
    48    18    49 1   
    49    19    50 1   
    50    21    51 1   
    51    27    52 1   
    52    28    52 1   
    53    29    52 1   
    54    42    53 1   
    55    43    53 1   
@<TRIPOS>SUBSTRUCTURE
     1 GKI         1 TEMP              0 ****  ****    0 ROOT
