@<TRIPOS>MOLECULE
GKI
   53    55     1     0     0
SMALL
abcg2


@<TRIPOS>ATOM
      1 C11          8.2420     8.8810   -10.8680 c          1 GKI       0.614700
      2 C12          9.3500     9.7190   -11.4550 c3         1 GKI      -0.191100
      3 C15         10.3750     5.0700    -8.2100 cc         1 GKI       0.410500
      4 C18         10.6960     3.6320    -6.5600 cd         1 GKI       0.721300
      5 N20         10.4920     2.9580    -5.4070 nh         1 GKI      -0.757300
      6 C25          9.1530     2.9670    -4.8310 c6         1 GKI       0.174800
      7 C16         11.5970     4.6200    -8.6000 cd         1 GKI      -0.272000
      8 C01         13.2340     8.3690   -12.3880 c3         1 GKI      -0.088100
      9 C02         12.9100     6.9060   -12.1020 c3         1 GKI      -0.061700
     10 C03         13.1420     6.0570   -13.3470 c3         1 GKI      -0.088100
     11 C04         11.4800     6.7190   -11.5950 c3         1 GKI      -0.075400
     12 C06          9.8220     7.0980    -9.7360 cd         1 GKI      -0.067300
     13 C07          9.5470     6.0650    -8.8690 cc         1 GKI      -0.222500
     14 C09          7.5800     7.0450    -9.3080 cc         1 GKI      -0.073300
     15 C10          8.5640     7.7300   -10.0270 cd         1 GKI      -0.259600
     16 C21         11.3140     1.8050    -5.0810 c6         1 GKI       0.174800
     17 C22         11.3000     1.5470    -3.5790 c6         1 GKI       0.141800
     18 C24          9.2190     2.6770    -3.3380 c6         1 GKI       0.141800
     19 N08          8.1960     6.0720    -8.6250 na         1 GKI      -0.078000
     20 N19          9.8690     4.4950    -7.0690 nc         1 GKI      -0.762000
     21 N23          9.9700     1.4820    -3.0050 n7         1 GKI      -0.842400
     22 O13          7.0800     9.1880   -11.0870 o          1 GKI      -0.563100
     23 S17         12.1680     3.4310    -7.4830 ss         1 GKI      -0.103400
     24 H123         8.9260    10.5330   -12.0410 hc         1 GKI       0.057033
     25 H121         9.9760    10.1460   -10.6700 hc         1 GKI       0.057033
     26 H122        10.0000     9.1310   -12.1030 hc         1 GKI       0.057033
     27 H142         5.6100     7.0510   -10.1500 hc         1 GKI       0.055700
     28 H143         5.6930     6.5410    -8.4640 hc         1 GKI       0.055700
     29 H141         5.8540     8.2440    -8.8910 hc         1 GKI       0.055700
     30 H252         8.7030     3.9420    -5.0040 h1         1 GKI       0.053950
     31 H251         8.5250     2.2180    -5.3310 h1         1 GKI       0.053950
     32 H161        12.1730     4.8690    -9.4750 h4         1 GKI       0.168000
     33 H012        13.1410     8.9960   -11.5010 hc         1 GKI       0.032367
     34 H011        14.2560     8.4780   -12.7570 hc         1 GKI       0.032367
     35 H013        12.5640     8.7720   -13.1520 hc         1 GKI       0.032367
     36 H021        13.5910     6.5530   -11.3180 hc         1 GKI       0.040700
     37 H033        12.9470     5.0000   -13.1530 hc         1 GKI       0.032367
     38 H032        12.4830     6.3710   -14.1610 hc         1 GKI       0.032367
     39 H031        14.1700     6.1450   -13.7030 hc         1 GKI       0.032367
     40 H041        10.7770     7.0750   -12.3570 hc         1 GKI       0.043200
     41 H042        11.2780     5.6480   -11.4850 hc         1 GKI       0.043200
     42 H052        11.9320     7.0940    -9.5250 hc         1 GKI       0.048200
     43 H051        11.3200     8.4880   -10.3570 hc         1 GKI       0.048200
     44 H211        10.9610     0.9170    -5.6210 h1         1 GKI       0.053950
     45 H212        12.3460     1.9870    -5.3870 h1         1 GKI       0.053950
     46 H221        11.8320     0.6170    -3.3770 h1         1 GKI       0.065700
     47 H222        11.8500     2.3490    -3.0760 h1         1 GKI       0.065700
     48 H241         9.6840     3.5270    -2.8280 h1         1 GKI       0.065700
     49 H242         8.2030     2.5880    -2.9520 h1         1 GKI       0.065700
     50 H081         7.7390     5.4260    -7.9990 hn         1 GKI       0.362000
     51 H231         9.4850     0.6660    -3.3620 hn         1 GKI       0.407000
     52 C14          6.1080     7.2310    -9.1980 c3         1 GKI      -0.031800
     53 C05         11.1870     7.4110   -10.2610 c3         1 GKI      -0.012100
@<TRIPOS>BOND
     1     1     2 1   
     2     1    15 1   
     3     1    22 2   
     4     2    24 1   
     5     2    25 1   
     6     2    26 1   
     7     3     7 2   
     8     3    13 1   
     9     3    20 1   
    10     4     5 1   
    11     4    20 2   
    12     4    23 1   
    13     5     6 1   
    14     5    16 1   
    15     6    18 1   
    16     6    30 1   
    17     6    31 1   
    18     7    23 1   
    19     7    32 1   
    20     8     9 1   
    21     8    33 1   
    22     8    34 1   
    23     8    35 1   
    24     9    10 1   
    25     9    11 1   
    26     9    36 1   
    27    10    37 1   
    28    10    38 1   
    29    10    39 1   
    30    11    40 1   
    31    11    41 1   
    32    11    53 1   
    33    12    13 2   
    34    12    15 1   
    35    12    53 1   
    36    13    19 1   
    37    14    15 2   
    38    14    19 1   
    39    14    52 1   
    40    16    17 1   
    41    16    44 1   
    42    16    45 1   
    43    17    21 1   
    44    17    46 1   
    45    17    47 1   
    46    18    21 1   
    47    18    48 1   
    48    18    49 1   
    49    19    50 1   
    50    21    51 1   
    51    27    52 1   
    52    28    52 1   
    53    29    52 1   
    54    42    53 1   
    55    43    53 1   
@<TRIPOS>SUBSTRUCTURE
     1 GKI         1 TEMP              0 ****  ****    0 ROOT
