@<TRIPOS>MOLECULE
GKJ
  106   111     1     0     0
SMALL
No Charge or Current Charge


@<TRIPOS>ATOM
      1 C10         -2.9160     1.6200    -1.1990 ca         1 GKJ       0.560300
      2 C13          0.5840     2.0430    -0.1180 c5         1 GKJ      -0.091400
      3 C20          4.2030    -4.0420    -0.1430 c3         1 GKJ      -0.055200
      4 C21          5.6030    -3.4930    -0.3700 c2         1 GKJ      -0.185200
      5 C22          4.7300    -0.0190    -1.1460 cx         1 GKJ      -0.063600
      6 C24          2.4440     0.2910    -0.1830 c          1 GKJ       0.586100
      7 C26          5.5980     0.5410    -0.0090 c          1 GKJ       0.682100
      8 C01         -1.0290     0.4970     0.7720 c5         1 GKJ       0.077000
      9 C02         -0.6520    -2.5020     0.9920 c3         1 GKJ       0.057700
     10 C03          1.5490    -3.6330     1.7340 c3         1 GKJ      -0.082400
     11 C04          3.9490    -4.5130     1.3130 c3         1 GKJ      -0.071400
     12 C05          5.9290    -2.3650    -1.0320 c2         1 GKJ      -0.196200
     13 C06          4.9670    -1.4240    -1.6860 cx         1 GKJ      -0.029500
     14 C07          5.4520    -0.2260    -2.4630 cx         1 GKJ      -0.105400
     15 C08         -2.6820     0.5100    -3.5180 c3         1 GKJ      -0.135400
     16 C09         -3.5130     0.9670    -2.3260 ca         1 GKJ       0.319300
     17 C12         -0.9470     1.9060     0.1050 c5         1 GKJ       0.168300
     18 C14          0.9940     0.6300    -0.6550 c5         1 GKJ       0.030700
     19 C16          0.0390    -1.6470    -0.1150 c          1 GKJ       0.603100
     20 C18          0.0870    -3.8430     1.2530 c3         1 GKJ      -0.084400
     21 C19          2.4660    -4.8750     1.5910 c3         1 GKJ      -0.068400
     22 C32          8.5340     2.6090     0.0880 cx         1 GKJ      -0.391000
     23 C33          9.5200     3.7630     0.1650 cx         1 GKJ      -0.077400
     24 C34          8.9320     3.3600    -1.1710 cx         1 GKJ      -0.077400
     25 C39         -5.5090    -2.2450     1.4010 c3         1 GKJ       0.182600
     26 C40        -10.5600    -1.9270     0.4810 c3         1 GKJ      -0.088100
     27 C41         -6.6460    -2.4770     0.3900 c3         1 GKJ      -0.086400
     28 C43         -5.0010     1.7550    -0.1970 ca         1 GKJ       0.306000
     29 C44         -5.8160     2.1300     0.8820 ca         1 GKJ      -0.141000
     30 C45         -7.1940     1.8760     0.8760 ca         1 GKJ       0.157100
     31 C48         -7.7790     1.2410    -0.2370 ca         1 GKJ      -0.194000
     32 C49         -6.9780     0.8550    -1.3250 ca         1 GKJ      -0.026000
     33 C50         -5.5910     1.0960    -1.3270 ca         1 GKJ       0.161000
     34 C52          9.0360     1.1740     0.2920 c3         1 GKJ      -0.039100
     35 C53         -8.0390    -2.1300     0.9600 c3         1 GKJ      -0.076400
     36 C54         -9.1710    -2.2910    -0.0770 c3         1 GKJ      -0.075400
     37 N15         -0.0090    -0.2460     0.0050 n          1 GKJ      -0.389800
     38 N23          3.3470     0.4350    -1.2200 ns         1 GKJ      -0.487900
     39 N28          5.8660     1.8620    -0.1680 ns         1 GKJ      -0.577300
     40 N35         -2.0700    -2.7180     0.6400 ns         1 GKJ      -0.505900
     41 N42         -3.6710     2.0270    -0.1400 nb         1 GKJ      -0.743000
     42 N51         -4.8460     0.7020    -2.3940 nb         1 GKJ      -0.613000
     43 O11         -1.5470     1.8710    -1.2290 os         1 GKJ      -0.462300
     44 O17          0.6640    -2.1560    -1.0400 o          1 GKJ      -0.615100
     45 O25          2.7680    -0.0890     0.9340 o          1 GKJ      -0.556100
     46 O27          6.0090    -0.1250     0.9300 o          1 GKJ      -0.537100
     47 O30          6.7890     2.3760     2.1660 o          1 GKJ      -0.522000
     48 O31          6.4000     4.2360     0.4770 o          1 GKJ      -0.522000
     49 O37         -3.0370    -1.9800     2.5850 o          1 GKJ      -0.542000
     50 O38         -4.2780    -2.6090     0.7570 os         1 GKJ      -0.459100
     51 O46         -7.9250     2.2660     1.9780 os         1 GKJ      -0.335100
     52 S29          6.8040     2.8590     0.7810 s6         1 GKJ       1.255800
     53 H131         0.8400     2.8480    -0.8160 hc         1 GKJ       0.079200
     54 H132         1.0820     2.2740     0.8310 hc         1 GKJ       0.079200
     55 H202         3.4520    -3.2940    -0.4170 hc         1 GKJ       0.051700
     56 H201         4.0360    -4.8930    -0.8150 hc         1 GKJ       0.051700
     57 H211         6.3950    -4.1080     0.0630 ha         1 GKJ       0.169000
     58 H011        -0.7590     0.5470     1.8350 h1         1 GKJ       0.083700
     59 H012        -2.0270     0.0470     0.6970 h1         1 GKJ       0.083700
     60 H021        -0.6000    -1.9150     1.9180 h1         1 GKJ       0.094700
     61 H032         1.9970    -2.8000     1.1850 hc         1 GKJ       0.051200
     62 H031         1.5420    -3.3110     2.7830 hc         1 GKJ       0.051200
     63 H041         4.5750    -5.3910     1.5120 hc         1 GKJ       0.043200
     64 H042         4.2690    -3.7320     2.0150 hc         1 GKJ       0.043200
     65 H051         6.9820    -2.0900    -1.1220 ha         1 GKJ       0.190000
     66 H061         4.1010    -1.9260    -2.1130 hc         1 GKJ       0.097700
     67 H071         4.9280     0.0240    -3.3820 hc         1 GKJ       0.083700
     68 H072         6.5240    -0.0410    -2.4950 hc         1 GKJ       0.083700
     69 H082        -1.8830    -0.1680    -3.1960 hc         1 GKJ       0.056700
     70 H081        -3.2880    -0.0190    -4.2630 hc         1 GKJ       0.056700
     71 H083        -2.2140     1.3680    -4.0150 hc         1 GKJ       0.056700
     72 H121        -1.3690     2.7200     0.7120 h1         1 GKJ       0.092700
     73 H141         0.9150     0.5600    -1.7480 h1         1 GKJ       0.078700
     74 H182        -0.4590    -4.4270     2.0040 hc         1 GKJ       0.055700
     75 H181         0.0800    -4.4340     0.3280 hc         1 GKJ       0.055700
     76 H192         2.4010    -5.4690     2.5100 hc         1 GKJ       0.037700
     77 H191         2.1070    -5.5210     0.7790 hc         1 GKJ       0.037700
     78 H331         9.1870     4.7050     0.5970 hc         1 GKJ       0.087450
     79 H332        10.5690     3.5360     0.3420 hc         1 GKJ       0.087450
     80 H341         9.5900     2.8630    -1.8810 hc         1 GKJ       0.087450
     81 H342         8.2110     4.0360    -1.6270 hc         1 GKJ       0.087450
     82 H1          -5.4960    -1.1880     1.6990 h1         1 GKJ       0.052700
     83 H391        -5.6770    -2.8580     2.2970 h1         1 GKJ       0.052700
     84 H401       -10.8110    -2.5610     1.3400 hc         1 GKJ       0.031033
     85 H402       -10.5870    -0.8790     0.8040 hc         1 GKJ       0.031033
     86 H2         -11.3290    -2.0680    -0.2870 hc         1 GKJ       0.031033
     87 H411        -6.4550    -1.8700    -0.5030 hc         1 GKJ       0.055200
     88 H412        -6.6360    -3.5270     0.0740 hc         1 GKJ       0.055200
     89 H441        -5.3700     2.6240     1.7390 ha         1 GKJ       0.150000
     90 H472        -9.8900     2.5000     1.2810 h1         1 GKJ       0.043700
     91 H473        -9.5410     0.9340     2.0630 h1         1 GKJ       0.043700
     92 H471        -9.7170     2.4020     3.0460 h1         1 GKJ       0.043700
     93 H481        -8.8440     1.0340    -0.2760 ha         1 GKJ       0.123000
     94 H491        -7.4350     0.3600    -2.1780 ha         1 GKJ       0.131000
     95 H521         8.9710     0.8700     1.3450 hc         1 GKJ       0.052700
     96 H523         8.4570     0.4590    -0.3050 hc         1 GKJ       0.052700
     97 H522        10.0840     1.0700    -0.0120 hc         1 GKJ       0.052700
     98 H532        -8.2460    -2.7760     1.8230 hc         1 GKJ       0.039200
     99 H531        -8.0320    -1.0990     1.3320 hc         1 GKJ       0.039200
    100 H541        -9.1910    -3.3280    -0.4350 hc         1 GKJ       0.039700
    101 H542        -8.9610    -1.6570    -0.9480 hc         1 GKJ       0.039700
    102 H231         2.9750     0.7610    -2.1050 hn         1 GKJ       0.321500
    103 H3           5.4880     2.3450    -0.9630 hn         1 GKJ       0.341500
    104 H351        -2.3070    -3.0630    -0.2820 hn         1 GKJ       0.334500
    105 C36         -3.1260    -2.4390     1.4590 c          1 GKJ       0.641100
    106 C47         -9.3370     2.0110     2.0930 c3         1 GKJ       0.147900
@<TRIPOS>BOND
     1     1    16 ar  
     2     1    41 ar  
     3     1    43 1   
     4     2    17 1   
     5     2    18 1   
     6     2    53 1   
     7     2    54 1   
     8     3     4 1   
     9     3    11 1   
    10     3    55 1   
    11     3    56 1   
    12     4    12 2   
    13     4    57 1   
    14     5     7 1   
    15     5    13 1   
    16     5    14 1   
    17     5    38 1   
    18     6    18 1   
    19     6    38 1   
    20     6    45 2   
    21     7    39 1   
    22     7    46 2   
    23     8    17 1   
    24     8    37 1   
    25     8    58 1   
    26     8    59 1   
    27     9    19 1   
    28     9    20 1   
    29     9    40 1   
    30     9    60 1   
    31    10    20 1   
    32    10    21 1   
    33    10    61 1   
    34    10    62 1   
    35    11    21 1   
    36    11    63 1   
    37    11    64 1   
    38    12    13 1   
    39    12    65 1   
    40    13    14 1   
    41    13    66 1   
    42    14    67 1   
    43    14    68 1   
    44    15    16 1   
    45    15    69 1   
    46    15    70 1   
    47    15    71 1   
    48    16    42 ar  
    49    17    43 1   
    50    17    72 1   
    51    18    37 1   
    52    18    73 1   
    53    19    37 1   
    54    19    44 2   
    55    20    74 1   
    56    20    75 1   
    57    21    76 1   
    58    21    77 1   
    59    22    23 1   
    60    22    24 1   
    61    22    34 1   
    62    22    52 1   
    63    23    24 1   
    64    23    78 1   
    65    23    79 1   
    66    24    80 1   
    67    24    81 1   
    68    25    27 1   
    69    25    50 1   
    70    25    82 1   
    71    25    83 1   
    72    26    36 1   
    73    26    84 1   
    74    26    85 1   
    75    26    86 1   
    76    27    35 1   
    77    27    87 1   
    78    27    88 1   
    79    28    29 ar  
    80    28    33 ar  
    81    28    41 ar  
    82    29    30 ar  
    83    29    89 1   
    84    30    31 ar  
    85    30    51 1   
    86    31    32 ar  
    87    31    93 1   
    88    32    33 ar  
    89    32    94 1   
    90    33    42 ar  
    91    34    95 1   
    92    34    96 1   
    93    34    97 1   
    94    35    36 1   
    95    35    98 1   
    96    35    99 1   
    97    36   100 1   
    98    36   101 1   
    99    38   102 1   
   100    39    52 1   
   101    39   103 1   
   102    40   104 1   
   103    40   105 1   
   104    47    52 2   
   105    48    52 2   
   106    49   105 2   
   107    50   105 1   
   108    51   106 1   
   109    90   106 1   
   110    91   106 1   
   111    92   106 1   
@<TRIPOS>SUBSTRUCTURE
     1 GKJ         1 TEMP              0 ****  ****    0 ROOT
