@<TRIPOS>MOLECULE
GKJ
  106   111     1     0     0
SMALL
abcg2


@<TRIPOS>ATOM
      1 C10         -2.5380     1.5710    -0.9880 ca         1 GKJ       0.560300
      2 C13          1.0440     1.6950    -0.4640 c5         1 GKJ      -0.091400
      3 C20          3.9980    -4.6050     0.5570 c3         1 GKJ      -0.055200
      4 C21          5.3980    -4.0840     0.4700 c2         1 GKJ      -0.185200
      5 C22          4.9400    -0.7190    -1.2260 cx         1 GKJ      -0.063600
      6 C24          2.7230    -0.2100    -0.4590 c          1 GKJ       0.586100
      7 C26          5.8820     0.1090    -0.4100 c          1 GKJ       0.682100
      8 C01         -0.4150     0.3610     0.8230 c5         1 GKJ       0.077000
      9 C02         -0.6190    -2.5800     0.8390 c3         1 GKJ       0.057700
     10 C03          1.2600    -3.8390     1.9420 c3         1 GKJ      -0.082400
     11 C04          3.5540    -4.9140     1.9900 c3         1 GKJ      -0.071400
     12 C05          5.8350    -3.0450    -0.2460 c2         1 GKJ      -0.196200
     13 C06          4.9930    -2.2460    -1.1580 cx         1 GKJ      -0.029500
     14 C07          5.5430    -1.5280    -2.3420 cx         1 GKJ      -0.105400
     15 C08         -2.5300     1.2690    -3.5210 c3         1 GKJ      -0.135400
     16 C09         -3.2630     1.4160    -2.2280 ca         1 GKJ       0.319300
     17 C12         -0.3870     1.6670     0.0480 c5         1 GKJ       0.168300
     18 C14          1.3160     0.2280    -0.8430 c5         1 GKJ       0.030700
     19 C16          0.3060    -1.8450    -0.1360 c          1 GKJ       0.603100
     20 C18         -0.0560    -3.9570     1.1770 c3         1 GKJ      -0.084400
     21 C19          2.0450    -5.1500     2.0710 c3         1 GKJ      -0.068400
     22 C32          7.3940     3.3600    -0.2480 cx         1 GKJ      -0.391000
     23 C33          7.5690     4.8300     0.0080 cx         1 GKJ      -0.077400
     24 C34          6.9110     4.3640    -1.2490 cx         1 GKJ      -0.077400
     25 C39         -5.3980    -2.1320     0.8400 c3         1 GKJ       0.182600
     26 C40        -10.3320    -1.6180     0.0620 c3         1 GKJ      -0.088100
     27 C41         -6.4860    -2.1840    -0.2100 c3         1 GKJ      -0.086400
     28 C43         -4.4730     1.6640     0.1860 ca         1 GKJ       0.306000
     29 C44         -5.1510     1.7780     1.4040 ca         1 GKJ      -0.141000
     30 C45         -6.5330     1.7700     1.4310 ca         1 GKJ       0.157100
     31 C48         -7.2630     1.6510     0.2280 ca         1 GKJ      -0.194000
     32 C49         -6.6000     1.5270    -0.9680 ca         1 GKJ      -0.026000
     33 C50         -5.1990     1.5280    -1.0170 ca         1 GKJ       0.161000
     34 C52          8.5880     2.4950    -0.5550 c3         1 GKJ      -0.039100
     35 C53         -7.8500    -1.9500     0.4270 c3         1 GKJ      -0.076400
     36 C54         -8.9820    -1.8810    -0.5880 c3         1 GKJ      -0.075400
     37 N15          0.3610    -0.5100    -0.0400 n          1 GKJ      -0.389800
     38 N23          3.6460    -0.1670    -1.4490 ns         1 GKJ      -0.487900
     39 N28          5.4750     1.4150    -0.2650 ns         1 GKJ      -0.577300
     40 N35         -1.9420    -2.6100     0.2580 ns         1 GKJ      -0.505900
     41 N42         -3.1120     1.6870     0.1610 nb         1 GKJ      -0.743000
     42 N51         -4.5580     1.4020    -2.2090 nb         1 GKJ      -0.613000
     43 O11         -1.2160     1.5930    -1.1130 os         1 GKJ      -0.462300
     44 O17          0.9660    -2.4470    -0.9730 o          1 GKJ      -0.615100
     45 O25          3.0090    -0.5290     0.6770 o          1 GKJ      -0.556100
     46 O27          6.9210    -0.3160     0.0370 o          1 GKJ      -0.537100
     47 O30          6.7580     1.9280     1.8730 o          1 GKJ      -0.522000
     48 O31          5.0530     3.5210     0.9490 o          1 GKJ      -0.522000
     49 O37         -3.0580    -1.9340     2.1210 o          1 GKJ      -0.542000
     50 O38         -4.1450    -2.4240     0.2120 os         1 GKJ      -0.459100
     51 O46         -7.1120     1.8790     2.6380 os         1 GKJ      -0.335100
     52 S29          6.1450     2.5850     0.7370 s6         1 GKJ       1.255800
     53 H131         1.1910     2.3770    -1.2990 hc         1 GKJ       0.079200
     54 H132         1.6900     2.0200     0.3550 hc         1 GKJ       0.079200
     55 H202         3.2980    -3.9030     0.1000 hc         1 GKJ       0.051700
     56 H201         3.9210    -5.5290    -0.0290 hc         1 GKJ       0.051700
     57 H211         6.1360    -4.6250     1.0570 ha         1 GKJ       0.169000
     58 H011         0.0690     0.5110     1.7930 h1         1 GKJ       0.083700
     59 H012        -1.4190    -0.0100     1.0010 h1         1 GKJ       0.083700
     60 H021        -0.6890    -2.0120     1.7680 h1         1 GKJ       0.094700
     61 H032         1.8950    -3.1000     1.4470 hc         1 GKJ       0.051200
     62 H031         1.0630    -3.4300     2.9370 hc         1 GKJ       0.051200
     63 H041         4.1000    -5.7880     2.3550 hc         1 GKJ       0.043200
     64 H042         3.8260    -4.0850     2.6510 hc         1 GKJ       0.043200
     65 H051         6.8880    -2.7990    -0.2000 ha         1 GKJ       0.190000
     66 H061         3.9990    -2.6470    -1.3190 hc         1 GKJ       0.097700
     67 H071         4.9940    -1.5630    -3.2750 hc         1 GKJ       0.083700
     68 H072         6.6180    -1.4710    -2.4530 hc         1 GKJ       0.083700
     69 H082        -1.9010     0.3780    -3.5190 hc         1 GKJ       0.056700
     70 H081        -3.2390     1.1900    -4.3410 hc         1 GKJ       0.056700
     71 H083        -1.8740     2.1210    -3.7070 hc         1 GKJ       0.056700
     72 H121        -0.6510     2.5310     0.6590 h1         1 GKJ       0.092700
     73 H141         1.1420     0.0620    -1.9100 h1         1 GKJ       0.078700
     74 H182        -0.7960    -4.4970     1.7730 hc         1 GKJ       0.055700
     75 H181         0.0910    -4.5290     0.2580 hc         1 GKJ       0.055700
     76 H192         1.7920    -5.6470     3.0100 hc         1 GKJ       0.037700
     77 H191         1.7550    -5.8450     1.2760 hc         1 GKJ       0.037700
     78 H331         6.9530     5.3190     0.7510 hc         1 GKJ       0.087450
     79 H332         8.5880     5.1910    -0.0350 hc         1 GKJ       0.087450
     80 H341         7.4670     4.4000    -2.1760 hc         1 GKJ       0.087450
     81 H342         5.8480     4.5390    -1.3580 hc         1 GKJ       0.087450
     82 H1          -5.3650    -1.1400     1.2960 h1         1 GKJ       0.052700
     83 H391        -5.5910    -2.8630     1.6310 h1         1 GKJ       0.052700
     84 H401       -10.5830    -2.3970     0.7840 hc         1 GKJ       0.031033
     85 H402       -10.3310    -0.6650     0.5970 hc         1 GKJ       0.031033
     86 H2         -11.1340    -1.5790    -0.6750 hc         1 GKJ       0.031033
     87 H411        -6.2990    -1.4170    -0.9680 hc         1 GKJ       0.055200
     88 H412        -6.4770    -3.1530    -0.7180 hc         1 GKJ       0.055200
     89 H441        -4.5830     1.8730     2.3210 ha         1 GKJ       0.150000
     90 H472        -8.9690     2.7140     2.1760 h1         1 GKJ       0.043700
     91 H473        -8.9610     0.9450     2.3740 h1         1 GKJ       0.043700
     92 H471        -8.7630     1.9970     3.7820 h1         1 GKJ       0.043700
     93 H481        -8.3440     1.6500     0.2260 ha         1 GKJ       0.123000
     94 H491        -7.1580     1.4220    -1.8890 ha         1 GKJ       0.131000
     95 H521         9.0590     2.1170     0.3510 hc         1 GKJ       0.052700
     96 H523         8.3270     1.6520    -1.1920 hc         1 GKJ       0.052700
     97 H522         9.3220     3.0950    -1.0890 hc         1 GKJ       0.052700
     98 H532        -8.0550    -2.7440     1.1520 hc         1 GKJ       0.039200
     99 H531        -7.8260    -1.0160     0.9990 hc         1 GKJ       0.039200
    100 H541        -9.0190    -2.8150    -1.1570 hc         1 GKJ       0.039700
    101 H542        -8.7660    -1.0900    -1.3140 hc         1 GKJ       0.039700
    102 H231         3.3580     0.0420    -2.3930 hn         1 GKJ       0.321500
    103 H3           4.6420     1.7150    -0.7570 hn         1 GKJ       0.341500
    104 H351        -2.0490    -2.9830    -0.6740 hn         1 GKJ       0.334500
    105 C36         -3.0510    -2.2970     0.9620 c          1 GKJ       0.641100
    106 C47         -8.5240     1.8830     2.7280 c3         1 GKJ       0.147900
@<TRIPOS>BOND
     1     1    16 ar  
     2     1    41 ar  
     3     1    43 1   
     4     2    17 1   
     5     2    18 1   
     6     2    53 1   
     7     2    54 1   
     8     3     4 1   
     9     3    11 1   
    10     3    55 1   
    11     3    56 1   
    12     4    12 2   
    13     4    57 1   
    14     5     7 1   
    15     5    13 1   
    16     5    14 1   
    17     5    38 1   
    18     6    18 1   
    19     6    38 1   
    20     6    45 2   
    21     7    39 1   
    22     7    46 2   
    23     8    17 1   
    24     8    37 1   
    25     8    58 1   
    26     8    59 1   
    27     9    19 1   
    28     9    20 1   
    29     9    40 1   
    30     9    60 1   
    31    10    20 1   
    32    10    21 1   
    33    10    61 1   
    34    10    62 1   
    35    11    21 1   
    36    11    63 1   
    37    11    64 1   
    38    12    13 1   
    39    12    65 1   
    40    13    14 1   
    41    13    66 1   
    42    14    67 1   
    43    14    68 1   
    44    15    16 1   
    45    15    69 1   
    46    15    70 1   
    47    15    71 1   
    48    16    42 ar  
    49    17    43 1   
    50    17    72 1   
    51    18    37 1   
    52    18    73 1   
    53    19    37 1   
    54    19    44 2   
    55    20    74 1   
    56    20    75 1   
    57    21    76 1   
    58    21    77 1   
    59    22    23 1   
    60    22    24 1   
    61    22    34 1   
    62    22    52 1   
    63    23    24 1   
    64    23    78 1   
    65    23    79 1   
    66    24    80 1   
    67    24    81 1   
    68    25    27 1   
    69    25    50 1   
    70    25    82 1   
    71    25    83 1   
    72    26    36 1   
    73    26    84 1   
    74    26    85 1   
    75    26    86 1   
    76    27    35 1   
    77    27    87 1   
    78    27    88 1   
    79    28    29 ar  
    80    28    33 ar  
    81    28    41 ar  
    82    29    30 ar  
    83    29    89 1   
    84    30    31 ar  
    85    30    51 1   
    86    31    32 ar  
    87    31    93 1   
    88    32    33 ar  
    89    32    94 1   
    90    33    42 ar  
    91    34    95 1   
    92    34    96 1   
    93    34    97 1   
    94    35    36 1   
    95    35    98 1   
    96    35    99 1   
    97    36   100 1   
    98    36   101 1   
    99    38   102 1   
   100    39    52 1   
   101    39   103 1   
   102    40   104 1   
   103    40   105 1   
   104    47    52 2   
   105    48    52 2   
   106    49   105 2   
   107    50   105 1   
   108    51   106 1   
   109    90   106 1   
   110    91   106 1   
   111    92   106 1   
@<TRIPOS>SUBSTRUCTURE
     1 GKJ         1 TEMP              0 ****  ****    0 ROOT
