@<TRIPOS>MOLECULE
GKK
   46    48     1     0     0
SMALL
abcg2


@<TRIPOS>ATOM
      1 CL1          4.7670    -0.8370    -0.1880 cl         1 GKK      -0.185000
      2 C1           3.4190     4.0860    -0.7690 c3         1 GKK       0.159100
      3 C2           2.0450     3.4560     1.1450 c5         1 GKK       0.160800
      4 C3           0.9950     2.3850     1.4020 c5         1 GKK      -0.102400
      5 C4           0.3510     2.1810     0.0130 c5         1 GKK       0.236500
      6 C5           1.3410     2.8470    -0.9720 c5         1 GKK       0.141800
      7 C9          -2.4960    -0.4510     2.8980 ca         1 GKK      -0.077000
      8 C10         -3.7560    -0.9830     2.6960 ca         1 GKK      -0.114000
      9 C8          -1.7650     0.0330     1.8220 ca         1 GKK      -0.108000
     10 C7          -2.2680     0.0040     0.5270 ca         1 GKK      -0.057300
     11 C6          -1.4470     0.5860    -0.6140 c3         1 GKK       0.263100
     12 N1           2.5260     3.1200    -0.1820 n3         1 GKK      -0.729600
     13 C12         -3.5460    -0.5420     0.3340 ca         1 GKK      -0.194300
     14 C13         -4.1440    -0.6370    -1.0390 c3         1 GKK       0.353300
     15 C14          0.8170    -0.2350    -0.3530 ca         1 GKK       0.365000
     16 C15          0.3530    -1.5600    -0.5180 ca         1 GKK      -0.202000
     17 N2          -0.0530     0.8130    -0.3030 nh         1 GKK      -0.824400
     18 C16          1.2290    -2.6180    -0.5820 ca         1 GKK      -0.021000
     19 C17          2.6090    -2.4280    -0.4780 ca         1 GKK      -0.079000
     20 C18          3.4970    -3.5310    -0.5370 cg         1 GKK       0.341000
     21 N3           4.2020    -4.4430    -0.5880 n1         1 GKK      -0.460000
     22 C19          3.0670    -1.1190    -0.3110 ca         1 GKK       0.195000
     23 C20          2.2130    -0.0450    -0.2500 ca         1 GKK      -0.201000
     24 C11         -4.2770    -1.0300     1.4120 ca         1 GKK      -0.062000
     25 F1          -4.1650     0.5480    -1.6680 f          1 GKK      -0.114333
     26 F2          -3.4520    -1.4780    -1.8280 f          1 GKK      -0.114333
     27 F3          -5.4020    -1.0820    -1.0250 f          1 GKK      -0.114333
     28 H1           4.2950     4.2230    -0.1350 h1         1 GKK       0.034700
     29 H1A          3.7650     3.7330    -1.7420 h1         1 GKK       0.034700
     30 H1B          2.9470     5.0700    -0.9160 h1         1 GKK       0.034700
     31 H2           1.5920     4.4610     1.1780 h1         1 GKK       0.042200
     32 H2A          2.8590     3.4370     1.8720 h1         1 GKK       0.042200
     33 H3           1.4680     1.4700     1.7620 hc         1 GKK       0.061700
     34 H3A          0.2570     2.6860     2.1440 hc         1 GKK       0.061700
     35 H4          -0.5710     2.7560    -0.0140 h1         1 GKK       0.056700
     36 H5           1.5750     2.2200    -1.8360 h1         1 GKK       0.050200
     37 H5A          0.8880     3.7730    -1.3570 h1         1 GKK       0.050200
     38 H10         -4.3350    -1.3630     3.5270 ha         1 GKK       0.124000
     39 H8          -0.7790     0.4350     2.0060 ha         1 GKK       0.128000
     40 H6          -1.5090    -0.0410    -1.5050 h1         1 GKK       0.072200
     41 H6A         -1.8790     1.5430    -0.9040 h1         1 GKK       0.072200
     42 H15         -0.7000    -1.7840    -0.5850 ha         1 GKK       0.126000
     43 H16          0.8400    -3.6190    -0.7080 ha         1 GKK       0.125000
     44 H20          2.6380     0.9460    -0.1380 ha         1 GKK       0.171000
     45 H11         -5.2590    -1.4560     1.2630 ha         1 GKK       0.133000
     46 H9          -2.0730    -0.4080     3.8930 ha         1 GKK       0.122000
@<TRIPOS>BOND
     1     1    22 1   
     2     2    12 1   
     3     2    28 1   
     4     2    29 1   
     5     2    30 1   
     6     3     4 1   
     7     3    12 1   
     8     3    31 1   
     9     3    32 1   
    10     4     5 1   
    11     4    33 1   
    12     4    34 1   
    13     5     6 1   
    14     5    17 1   
    15     5    35 1   
    16     6    12 1   
    17     6    36 1   
    18     6    37 1   
    19     7     8 ar  
    20     7     9 ar  
    21     7    46 1   
    22     8    24 ar  
    23     8    38 1   
    24     9    10 ar  
    25     9    39 1   
    26    10    11 1   
    27    10    13 ar  
    28    11    17 1   
    29    11    40 1   
    30    11    41 1   
    31    13    14 1   
    32    13    24 ar  
    33    14    25 1   
    34    14    26 1   
    35    14    27 1   
    36    15    16 ar  
    37    15    17 1   
    38    15    23 ar  
    39    16    18 ar  
    40    16    42 1   
    41    18    19 ar  
    42    18    43 1   
    43    19    20 1   
    44    19    22 ar  
    45    20    21 3   
    46    22    23 ar  
    47    23    44 1   
    48    24    45 1   
@<TRIPOS>SUBSTRUCTURE
     1 GKK         1 TEMP              0 ****  ****    0 ROOT
