@<TRIPOS>MOLECULE
GKK
   46    48     1     0     0
SMALL
No Charge or Current Charge


@<TRIPOS>ATOM
      1 Cl1          4.7310    -0.5990    -2.3040 cl         1 GKK      -0.185000
      2 C1           2.1280     4.2580    -1.0220 c3         1 GKK       0.159100
      3 C2           1.7460     3.1060     1.1730 c5         1 GKK       0.160800
      4 C3           1.3500     1.6520     1.5190 c5         1 GKK      -0.102400
      5 C4           0.1580     1.4270     0.5280 c5         1 GKK       0.236500
      6 C5           0.4530     2.4250    -0.6500 c5         1 GKK       0.141800
      7 C9          -3.3040    -0.5400     2.7510 ca         1 GKK      -0.077000
      8 C10         -4.4210     0.2070     2.3590 ca         1 GKK      -0.114000
      9 C8          -2.2730    -0.7800     1.8320 ca         1 GKK      -0.108000
     10 C7          -2.3380    -0.2810     0.5140 ca         1 GKK      -0.057300
     11 C6          -1.1490    -0.5940    -0.4110 c3         1 GKK       0.263100
     12 N1           1.7770     3.0170    -0.3030 n3         1 GKK      -0.729600
     13 C12         -3.4740     0.4830     0.1100 ca         1 GKK      -0.194300
     14 C13         -3.6100     1.0560    -1.3160 c3         1 GKK       0.353300
     15 C14          1.3080    -0.7760    -0.1560 ca         1 GKK       0.365000
     16 C15          1.4500    -1.9780     0.5550 ca         1 GKK      -0.202000
     17 N2           0.1430     0.0030     0.0130 nh         1 GKK      -0.824400
     18 C16          2.5990    -2.7720     0.4030 ca         1 GKK      -0.021000
     19 C17          3.6230    -2.3660    -0.4720 ca         1 GKK      -0.079000
     20 C18          4.7950    -3.1830    -0.6190 cg         1 GKK       0.341000
     21 N3           5.7420    -3.8570    -0.7300 n1         1 GKK      -0.460000
     22 C19          3.4810    -1.1610    -1.1900 ca         1 GKK       0.195000
     23 C20          2.3290    -0.3780    -1.0310 ca         1 GKK      -0.201000
     24 C11         -4.5070     0.7130     1.0530 ca         1 GKK      -0.062000
     25 F1          -2.5820     1.8750    -1.6310 f          1 GKK      -0.114333
     26 F2          -3.6430     0.0760    -2.2470 f          1 GKK      -0.114333
     27 F3          -4.7370     1.7830    -1.4920 f          1 GKK      -0.114333
     28 H1           3.1240     4.6090    -0.7220 h1         1 GKK       0.034700
     29 H1A          2.1390     4.0860    -2.1060 h1         1 GKK       0.034700
     30 H1B          1.4020     5.0540    -0.8060 h1         1 GKK       0.034700
     31 H2           0.9970     3.8300     1.5260 h1         1 GKK       0.042200
     32 H2A          2.7220     3.3800     1.5980 h1         1 GKK       0.042200
     33 H3           2.2100     0.9950     1.3660 hc         1 GKK       0.061700
     34 H3A          1.0420     1.5400     2.5640 hc         1 GKK       0.061700
     35 H4          -0.7870     1.7020     1.0150 h1         1 GKK       0.056700
     36 H5           0.4580     1.9370    -1.6340 h1         1 GKK       0.050200
     37 H5A         -0.3260     3.1990    -0.6770 h1         1 GKK       0.050200
     38 H10         -5.2240     0.3960     3.0680 ha         1 GKK       0.124000
     39 H8          -1.4070    -1.3560     2.1490 ha         1 GKK       0.128000
     40 H6          -1.0560    -1.6890    -0.4520 h1         1 GKK       0.072200
     41 H6A         -1.3570    -0.2850    -1.4410 h1         1 GKK       0.072200
     42 H15          0.6680    -2.2950     1.2380 ha         1 GKK       0.126000
     43 H16          2.6920    -3.6990     0.9670 ha         1 GKK       0.125000
     44 H20          2.2350     0.5430    -1.5910 ha         1 GKK       0.171000
     45 H11         -5.3900     1.2890     0.7850 ha         1 GKK       0.133000
     46 H9          -3.2360    -0.9310     3.7630 ha         1 GKK       0.122000
@<TRIPOS>BOND
     1     1    22 1   
     2     2    12 1   
     3     2    28 1   
     4     2    29 1   
     5     2    30 1   
     6     3     4 1   
     7     3    12 1   
     8     3    31 1   
     9     3    32 1   
    10     4     5 1   
    11     4    33 1   
    12     4    34 1   
    13     5     6 1   
    14     5    17 1   
    15     5    35 1   
    16     6    12 1   
    17     6    36 1   
    18     6    37 1   
    19     7     8 ar  
    20     7     9 ar  
    21     7    46 1   
    22     8    24 ar  
    23     8    38 1   
    24     9    10 ar  
    25     9    39 1   
    26    10    11 1   
    27    10    13 ar  
    28    11    17 1   
    29    11    40 1   
    30    11    41 1   
    31    13    14 1   
    32    13    24 ar  
    33    14    25 1   
    34    14    26 1   
    35    14    27 1   
    36    15    16 ar  
    37    15    17 1   
    38    15    23 ar  
    39    16    18 ar  
    40    16    42 1   
    41    18    19 ar  
    42    18    43 1   
    43    19    20 1   
    44    19    22 ar  
    45    20    21 3   
    46    22    23 ar  
    47    23    44 1   
    48    24    45 1   
@<TRIPOS>SUBSTRUCTURE
     1 GKK         1 TEMP              0 ****  ****    0 ROOT
