@<TRIPOS>MOLECULE
GKL
   42    41     1     0     0
SMALL
No Charge or Current Charge


@<TRIPOS>ATOM
      1 O1           0.7820    -0.0590     1.4960 oh         1 GKL      -0.692000
      2 C1           1.1320    -0.6220     0.2260 c3         1 GKL       0.188300
      3 C2          -0.1520    -0.4900    -0.6380 c3         1 GKL       0.132800
      4 C3           2.4050     0.0540    -0.3970 c3         1 GKL       0.162500
      5 N1           2.2810     1.5290    -0.4640 n8         1 GKL      -0.981200
      6 C4           3.7010    -0.3330     0.3720 c3         1 GKL      -0.110400
      7 C5           5.0470     0.1600    -0.2400 c3         1 GKL      -0.063700
      8 C6           6.2320    -0.1940     0.6880 c3         1 GKL      -0.085600
      9 C7           5.2930    -0.3840    -1.6680 c3         1 GKL      -0.085600
     10 N2          -1.3570    -0.7170     0.2190 n7         1 GKL      -0.873400
     11 C8          -2.6800    -0.4180    -0.4350 c3         1 GKL       0.048500
     12 C           -2.8710     1.0970    -0.8810 c          1 GKL       0.718000
     13 O           -2.9660     1.9660    -0.0200 o          1 GKL      -0.725500
     14 C10         -3.8470    -0.9160     0.4780 c3         1 GKL      -0.051700
     15 C11         -5.2380    -0.6460    -0.1510 c3         1 GKL      -0.081100
     16 C12         -3.7220    -2.4190     0.8460 c3         1 GKL      -0.081100
     17 OXT         -2.8840     1.3500    -2.0800 o          1 GKL      -0.725500
     18 H1          -0.1820     0.5180    -1.0740 h1         1 GKL       0.048700
     19 H2          -0.1110    -1.2070    -1.4700 h1         1 GKL       0.048700
     20 H3           2.5050    -0.3190    -1.4250 h1         1 GKL       0.040700
     21 H4           1.8960     1.8360     0.4370 hn         1 GKL       0.392000
     22 H5           3.2220     1.9320    -0.4760 hn         1 GKL       0.392000
     23 H6           3.6220     0.0410     1.4010 hc         1 GKL       0.048700
     24 H7           3.7410    -1.4260     0.4510 hc         1 GKL       0.048700
     25 H8           5.0190     1.2550    -0.3060 hc         1 GKL       0.037700
     26 H9           6.3330    -1.2810     0.7970 hc         1 GKL       0.027700
     27 H10          7.1730     0.1990     0.2840 hc         1 GKL       0.027700
     28 H11          6.0870     0.2390     1.6860 hc         1 GKL       0.027700
     29 H12          6.2700    -0.0550    -2.0430 hc         1 GKL       0.027700
     30 H13          5.2760    -1.4800    -1.6770 hc         1 GKL       0.027700
     31 H14          4.5330    -0.0200    -2.3680 hc         1 GKL       0.027700
     32 H15         -1.3690    -1.7100     0.4860 hn         1 GKL       0.378000
     33 H16         -2.7370    -1.0140    -1.3570 h1         1 GKL       0.008700
     34 H17         -3.8020    -0.3470     1.4160 hc         1 GKL       0.065700
     35 H18         -5.3300    -1.1500    -1.1200 hc         1 GKL       0.019700
     36 H19         -6.0370    -1.0150     0.5030 hc         1 GKL       0.019700
     37 H20         -5.4080     0.4260    -0.3020 hc         1 GKL       0.019700
     38 H21         -3.6950    -3.0400    -0.0570 hc         1 GKL       0.019700
     39 H22         -2.8140    -2.6170     1.4290 hc         1 GKL       0.019700
     40 H23         -4.5750    -2.7410     1.4550 hc         1 GKL       0.019700
     41 H25         -0.2120    -0.0800     1.4050 ho         1 GKL       0.511000
     42 H26          1.3330    -1.6940     0.3530 h1         1 GKL       0.000700
@<TRIPOS>BOND
     1     1     2 1   
     2     1    41 1   
     3     2     3 1   
     4     2     4 1   
     5     2    42 1   
     6     3    10 1   
     7     3    18 1   
     8     3    19 1   
     9     4     5 1   
    10     4     6 1   
    11     4    20 1   
    12     5    21 1   
    13     5    22 1   
    14     6     7 1   
    15     6    23 1   
    16     6    24 1   
    17     7     8 1   
    18     7     9 1   
    19     7    25 1   
    20     8    26 1   
    21     8    27 1   
    22     8    28 1   
    23     9    29 1   
    24     9    30 1   
    25     9    31 1   
    26    10    11 1   
    27    10    32 1   
    28    11    12 1   
    29    11    14 1   
    30    11    33 1   
    31    12    13 1   
    32    12    17 1   
    33    14    15 1   
    34    14    16 1   
    35    14    34 1   
    36    15    35 1   
    37    15    36 1   
    38    15    37 1   
    39    16    38 1   
    40    16    39 1   
    41    16    40 1   
@<TRIPOS>SUBSTRUCTURE
     1 GKL         1 TEMP              0 ****  ****    0 ROOT
