@<TRIPOS>MOLECULE
GKL
   42    41     1     0     0
SMALL
bcc


@<TRIPOS>ATOM
      1 O1           0.8000     0.3820     1.3050 oh         1 GKL      -0.629800
      2 C1           1.0850    -0.4860     0.2310 c3         1 GKL       0.165100
      3 C2          -0.1320    -0.5550    -0.6840 c3         1 GKL       0.132800
      4 C3           2.3500    -0.0270    -0.4920 c3         1 GKL       0.162500
      5 N1           2.1430     1.2980    -1.0610 n8         1 GKL      -0.870800
      6 C4           3.5750    -0.1450     0.4240 c3         1 GKL      -0.110400
      7 C5           4.9200     0.1800    -0.2300 c3         1 GKL      -0.063700
      8 C6           6.0310     0.1440     0.8160 c3         1 GKL      -0.085600
      9 C7           5.2430    -0.7630    -1.3850 c3         1 GKL      -0.085600
     10 N2          -1.2820    -0.9270     0.1200 n7         1 GKL      -0.818200
     11 C8          -2.5630    -0.4310    -0.3440 c3         1 GKL       0.048500
     12 C           -2.6070     1.1080    -0.1690 c          1 GKL       0.928600
     13 O           -2.2860     1.5510     0.9520 o          1 GKL      -0.830800
     14 C10         -3.7090    -1.0780     0.4500 c3         1 GKL      -0.051700
     15 C11         -5.0600    -0.4980     0.0380 c3         1 GKL      -0.081100
     16 C12         -3.7490    -2.5970     0.2830 c3         1 GKL      -0.081100
     17 OXT         -2.9750     1.7810    -1.1530 o          1 GKL      -0.830800
     18 H1          -0.2950     0.4350    -1.1150 h1         1 GKL       0.048700
     19 H2           0.0530    -1.2380    -1.5240 h1         1 GKL       0.048700
     20 H3           2.4750    -0.7230    -1.3300 h1         1 GKL       0.040700
     21 H4           2.0490     1.9710    -0.3090 hn         1 GKL       0.336800
     22 H5           2.9610     1.5800    -1.5870 hn         1 GKL       0.336800
     23 H6           3.4360     0.5190     1.2840 hc         1 GKL       0.048700
     24 H7           3.6230    -1.1650     0.8260 hc         1 GKL       0.048700
     25 H8           4.8750     1.2020    -0.6240 hc         1 GKL       0.037700
     26 H9           6.1360    -0.8580     1.2400 hc         1 GKL       0.027700
     27 H10          6.9940     0.4230     0.3850 hc         1 GKL       0.027700
     28 H11          5.8220     0.8300     1.6380 hc         1 GKL       0.027700
     29 H12          6.2200    -0.5360    -1.8150 hc         1 GKL       0.027700
     30 H13          5.2650    -1.8010    -1.0430 hc         1 GKL       0.027700
     31 H14          4.5120    -0.6980    -2.1920 hc         1 GKL       0.027700
     32 H15         -1.2980    -1.9330     0.2210 hn         1 GKL       0.322800
     33 H16         -2.7310    -0.6610    -1.4110 h1         1 GKL       0.008700
     34 H17         -3.5380    -0.8480     1.5070 hc         1 GKL       0.065700
     35 H18         -5.2310    -0.6340    -1.0320 hc         1 GKL       0.019700
     36 H19         -5.8710    -1.0020     0.5670 hc         1 GKL       0.019700
     37 H20         -5.1430     0.5670     0.2550 hc         1 GKL       0.019700
     38 H21         -3.9020    -2.8710    -0.7640 hc         1 GKL       0.019700
     39 H22         -2.8430    -3.0990     0.6280 hc         1 GKL       0.019700
     40 H23         -4.5750    -3.0210     0.8560 hc         1 GKL       0.019700
     41 H25         -0.1660     0.3350     1.4100 ho         1 GKL       0.472000
     42 H26          1.2810    -1.5060     0.6060 h1         1 GKL       0.000700
@<TRIPOS>BOND
     1     1     2 1   
     2     1    41 1   
     3     2     3 1   
     4     2     4 1   
     5     2    42 1   
     6     3    10 1   
     7     3    18 1   
     8     3    19 1   
     9     4     5 1   
    10     4     6 1   
    11     4    20 1   
    12     5    21 1   
    13     5    22 1   
    14     6     7 1   
    15     6    23 1   
    16     6    24 1   
    17     7     8 1   
    18     7     9 1   
    19     7    25 1   
    20     8    26 1   
    21     8    27 1   
    22     8    28 1   
    23     9    29 1   
    24     9    30 1   
    25     9    31 1   
    26    10    11 1   
    27    10    32 1   
    28    11    12 1   
    29    11    14 1   
    30    11    33 1   
    31    12    13 1   
    32    12    17 1   
    33    14    15 1   
    34    14    16 1   
    35    14    34 1   
    36    15    35 1   
    37    15    36 1   
    38    15    37 1   
    39    16    38 1   
    40    16    39 1   
    41    16    40 1   
@<TRIPOS>SUBSTRUCTURE
     1 GKL         1 TEMP              0 ****  ****    0 ROOT
