@<TRIPOS>MOLECULE
GKM
  107   113     1     0     0
SMALL
bcc


@<TRIPOS>ATOM
      1 C10        -30.3610    -2.9780    -7.6210 c3         1 GKM      -0.080400
      2 C13        -27.3770     1.1580    -8.7910 cx         1 GKM      -0.035500
      3 C15        -29.1750     0.4980    -0.3080 c3         1 GKM      -0.139400
      4 C17        -27.7930    -2.3220    -3.0770 c5         1 GKM       0.141100
      5 C20        -31.3860    -1.9330    -7.1860 c3         1 GKM      -0.086400
      6 C21        -30.3270    -3.2150    -9.1380 c3         1 GKM      -0.066400
      7 C22        -22.7240    -2.2220    -6.4510 cx         1 GKM      -0.286200
      8 C24        -22.3450    -1.6120    -5.1300 cx         1 GKM      -0.080400
      9 C26        -33.2330     1.7890    -2.8850 c5         1 GKM       0.190800
     10 C28        -31.8450     2.3890    -2.6600 c5         1 GKM      -0.093900
     11 C01        -27.4440    -1.2420    -0.9880 ca         1 GKM       0.555300
     12 C02        -26.7670    -1.6570    -3.9830 c5         1 GKM      -0.111400
     13 C03        -29.4230    -0.8990    -9.8270 c3         1 GKM      -0.048200
     14 C04        -28.3690    -0.1960   -10.6240 c2         1 GKM      -0.138200
     15 C05        -26.1690     0.9660    -7.8690 cx         1 GKM      -0.070600
     16 C06        -27.0760    -0.5350    -6.2290 c          1 GKM       0.660100
     17 C07        -24.9170     0.3710    -8.4220 c          1 GKM       0.748100
     18 C08        -28.9840    -2.5070    -3.9970 c5         1 GKM       0.104000
     19 C09        -31.2350    -1.5070    -5.7240 c3         1 GKM       0.055700
     20 C11        -29.2550    -2.4190    -9.8820 c3         1 GKM      -0.073400
     21 C12        -27.4560     0.6710   -10.1820 c2         1 GKM      -0.141200
     22 C14        -26.5580     2.3270    -8.3770 cx         1 GKM      -0.096400
     23 C16        -27.9210    -0.2670    -0.0410 ca         1 GKM       0.320300
     24 C18        -27.6140    -0.6890    -4.8150 c5         1 GKM       0.029700
     25 C19        -29.9050    -0.7640    -5.5560 c          1 GKM       0.658100
     26 C23        -21.3750    -2.4860    -5.8520 cx         1 GKM      -0.080400
     27 C27        -34.0070     3.0020    -3.3990 c5         1 GKM      -0.093900
     28 C29        -33.8670     1.1250    -1.6790 c3         1 GKM      -0.107100
     29 C30        -25.6370    -1.6830     0.3040 ca         1 GKM       0.372300
     30 C31        -24.4410    -2.3890     0.5230 ca         1 GKM      -0.286300
     31 C32        -23.7190    -2.1620     1.6750 ca         1 GKM       0.165100
     32 C33        -22.0490    -3.7320     1.0780 c3         1 GKM       0.122700
     33 C34        -24.1790    -1.2230     2.6300 ca         1 GKM      -0.158000
     34 C35        -25.3380    -0.5320     2.4190 ca         1 GKM      -0.112300
     35 C36        -26.0940    -0.7450     1.2500 ca         1 GKM       0.230300
     36 C37        -23.7570    -3.3170    -6.5330 c3         1 GKM      -0.044100
     37 C53        -33.0280     3.7360    -4.3290 c5         1 GKM      -0.077900
     38 C54        -31.6160     3.2930    -3.8760 c5         1 GKM      -0.077900
     39 N38        -28.9150    -1.3350    -4.8590 n          1 GKM      -0.451800
     40 N39        -26.4830     0.6490    -6.5160 ns         1 GKM      -0.543900
     41 N40        -24.1740    -0.3160    -7.4950 ns         1 GKM      -0.640300
     42 N41        -32.3180    -0.6190    -5.3680 ns         1 GKM      -0.540900
     43 N42        -26.3510    -1.9120    -0.8280 nb         1 GKM      -0.757000
     44 N43        -27.2420    -0.0500     1.0430 nb         1 GKM      -0.613000
     45 O44        -28.2150    -1.4200    -2.0530 os         1 GKM      -0.422100
     46 O45        -29.7480     0.3210    -6.1040 o          1 GKM      -0.629100
     47 O46        -27.1270    -1.4430    -7.0330 o          1 GKM      -0.567100
     48 O47        -21.6310    -0.1850    -7.7530 o          1 GKM      -0.587300
     49 O48        -22.9230    -1.8730    -9.0630 o          1 GKM      -0.587300
     50 O49        -31.7510    -0.6060    -3.1780 o          1 GKM      -0.601000
     51 O50        -33.2200     0.8940    -4.0300 os         1 GKM      -0.441900
     52 O51        -22.5680    -2.7780     1.9850 os         1 GKM      -0.311900
     53 O55        -24.5740     0.4890    -9.5760 o          1 GKM      -0.540100
     54 S52        -22.7380    -1.1230    -7.8360 s6         1 GKM       1.286600
     55 H102       -30.5990    -3.9150    -7.1090 hc         1 GKM       0.048700
     56 H101       -29.3580    -2.7000    -7.2860 hc         1 GKM       0.048700
     57 H131       -28.2880     1.0410    -8.2170 hc         1 GKM       0.101700
     58 H152       -29.3880     1.1610     0.5280 hc         1 GKM       0.060700
     59 H153       -29.0810     1.1020    -1.2120 hc         1 GKM       0.060700
     60 H151       -30.0290    -0.1620    -0.4630 hc         1 GKM       0.060700
     61 H171       -27.4460    -3.2610    -2.6450 h1         1 GKM       0.090700
     62 H201       -31.3290    -1.0430    -7.8190 hc         1 GKM       0.057700
     63 H202       -32.3920    -2.3390    -7.3160 hc         1 GKM       0.057700
     64 H212       -31.3110    -3.0020    -9.5690 hc         1 GKM       0.036700
     65 H211       -30.1430    -4.2750    -9.3280 hc         1 GKM       0.036700
     66 H242       -22.8660    -2.0080    -4.2670 hc         1 GKM       0.087950
     67 H241       -22.1270    -0.5530    -5.0740 hc         1 GKM       0.087950
     68 H282       -31.8940     2.9860    -1.7460 hc         1 GKM       0.058450
     69 H281       -31.0630     1.6470    -2.5120 hc         1 GKM       0.058450
     70 H022       -26.3210    -2.4270    -4.6170 hc         1 GKM       0.076200
     71 H021       -25.9640    -1.1570    -3.4440 hc         1 GKM       0.076200
     72 H032       -29.4110    -0.5690    -8.7890 hc         1 GKM       0.046700
     73 H031       -30.4090    -0.6390   -10.2300 hc         1 GKM       0.046700
     74 H041       -28.3460    -0.4440   -11.6820 ha         1 GKM       0.118000
     75 H082       -29.9210    -2.5440    -3.4450 h1         1 GKM       0.078200
     76 H081       -28.8690    -3.4330    -4.5650 h1         1 GKM       0.078200
     77 H091       -31.2850    -2.3970    -5.0960 h1         1 GKM       0.081700
     78 H111       -29.2440    -2.7380   -10.9290 hc         1 GKM       0.048200
     79 H112       -28.2730    -2.6740    -9.4720 hc         1 GKM       0.048200
     80 H121       -26.7480     1.0810   -10.8910 ha         1 GKM       0.140000
     81 H142       -25.8940     2.7770    -9.1040 hc         1 GKM       0.086700
     82 H141       -26.9710     3.0200    -7.6540 hc         1 GKM       0.086700
     83 H181       -27.6880     0.2860    -4.3210 h1         1 GKM       0.074700
     84 H232       -21.2130    -3.4950    -5.4990 hc         1 GKM       0.087950
     85 H231       -20.5030    -2.0180    -6.2880 hc         1 GKM       0.087950
     86 H271       -34.2640     3.6260    -2.5400 hc         1 GKM       0.058450
     87 H272       -34.9450     2.7230    -3.8810 hc         1 GKM       0.058450
     88 H293       -33.9440     1.8470    -0.8660 hc         1 GKM       0.052700
     89 H291       -34.8740     0.7740    -1.9090 hc         1 GKM       0.052700
     90 H292       -33.2800     0.2810    -1.3210 hc         1 GKM       0.052700
     91 H311       -24.1230    -3.0930    -0.2340 ha         1 GKM       0.151000
     92 H333       -21.1260    -4.1030     1.5150 h1         1 GKM       0.044700
     93 H332       -22.7350    -4.5700     0.9330 h1         1 GKM       0.044700
     94 H331       -21.8260    -3.2870     0.1050 h1         1 GKM       0.044700
     95 H341       -23.5980    -1.0620     3.5290 ha         1 GKM       0.153000
     96 H351       -25.6920     0.1860     3.1480 ha         1 GKM       0.154000
     97 H373       -23.7090    -3.9170    -5.6260 hc         1 GKM       0.054367
     98 H372       -24.7700    -2.9220    -6.6150 hc         1 GKM       0.054367
     99 H371       -23.5750    -3.9760    -7.3800 hc         1 GKM       0.054367
    100 H531       -33.2020     3.4630    -5.3700 hc         1 GKM       0.046950
    101 H532       -33.1590     4.8160    -4.2620 hc         1 GKM       0.046950
    102 H541       -31.1080     2.7420    -4.6700 hc         1 GKM       0.046950
    103 H542       -30.9770     4.1400    -3.6270 hc         1 GKM       0.046950
    104 H391       -26.5180     1.3980    -5.8410 hn         1 GKM       0.322500
    105 H401       -24.3970    -0.1980    -6.5130 hn         1 GKM       0.336500
    106 H411       -32.6920    -0.0400    -6.1050 hn         1 GKM       0.327500
    107 C25        -32.3770    -0.1320    -4.1030 c          1 GKM       0.757100
@<TRIPOS>BOND
     1     1     5 1   
     2     1     6 1   
     3     1    55 1   
     4     1    56 1   
     5     2    15 1   
     6     2    21 1   
     7     2    22 1   
     8     2    57 1   
     9     3    23 1   
    10     3    58 1   
    11     3    59 1   
    12     3    60 1   
    13     4    12 1   
    14     4    18 1   
    15     4    45 1   
    16     4    61 1   
    17     5    19 1   
    18     5    62 1   
    19     5    63 1   
    20     6    20 1   
    21     6    64 1   
    22     6    65 1   
    23     7     8 1   
    24     7    26 1   
    25     7    36 1   
    26     7    54 1   
    27     8    26 1   
    28     8    66 1   
    29     8    67 1   
    30     9    10 1   
    31     9    27 1   
    32     9    28 1   
    33     9    51 1   
    34    10    38 1   
    35    10    68 1   
    36    10    69 1   
    37    11    23 ar  
    38    11    43 ar  
    39    11    45 1   
    40    12    24 1   
    41    12    70 1   
    42    12    71 1   
    43    13    14 1   
    44    13    20 1   
    45    13    72 1   
    46    13    73 1   
    47    14    21 2   
    48    14    74 1   
    49    15    17 1   
    50    15    22 1   
    51    15    40 1   
    52    16    24 1   
    53    16    40 1   
    54    16    47 2   
    55    17    41 1   
    56    17    53 2   
    57    18    39 1   
    58    18    75 1   
    59    18    76 1   
    60    19    25 1   
    61    19    42 1   
    62    19    77 1   
    63    20    78 1   
    64    20    79 1   
    65    21    80 1   
    66    22    81 1   
    67    22    82 1   
    68    23    44 ar  
    69    24    39 1   
    70    24    83 1   
    71    25    39 1   
    72    25    46 2   
    73    26    84 1   
    74    26    85 1   
    75    27    37 1   
    76    27    86 1   
    77    27    87 1   
    78    28    88 1   
    79    28    89 1   
    80    28    90 1   
    81    29    30 ar  
    82    29    35 ar  
    83    29    43 ar  
    84    30    31 ar  
    85    30    91 1   
    86    31    33 ar  
    87    31    52 1   
    88    32    52 1   
    89    32    92 1   
    90    32    93 1   
    91    32    94 1   
    92    33    34 ar  
    93    33    95 1   
    94    34    35 ar  
    95    34    96 1   
    96    35    44 ar  
    97    36    97 1   
    98    36    98 1   
    99    36    99 1   
   100    37    38 1   
   101    37   100 1   
   102    37   101 1   
   103    38   102 1   
   104    38   103 1   
   105    40   104 1   
   106    41    54 1   
   107    41   105 1   
   108    42   106 1   
   109    42   107 1   
   110    48    54 2   
   111    49    54 2   
   112    50   107 2   
   113    51   107 1   
@<TRIPOS>SUBSTRUCTURE
     1 GKM         1 TEMP              0 ****  ****    0 ROOT
