@<TRIPOS>MOLECULE
GKM
  107   113     1     0     0
SMALL
No Charge or Current Charge


@<TRIPOS>ATOM
      1 C10        -30.4820    -2.5330    -7.0470 c3         1 GKM      -0.080400
      2 C13        -26.9990     1.1900    -8.8370 cx         1 GKM      -0.035500
      3 C15        -26.4510     1.9180    -1.3540 c3         1 GKM      -0.139400
      4 C17        -27.5610    -1.9140    -2.6790 c5         1 GKM       0.164300
      5 C20        -31.3790    -1.3260    -6.6620 c3         1 GKM      -0.086400
      6 C21        -30.5160    -2.8960    -8.5550 c3         1 GKM      -0.066400
      7 C22        -21.9670    -2.1590    -6.4440 cx         1 GKM      -0.397000
      8 C24        -21.0120    -1.1500    -5.8300 cx         1 GKM      -0.080400
      9 C26        -35.3460     1.4290    -3.9560 c5         1 GKM       0.214000
     10 C28        -35.4670     0.9480    -2.4760 c5         1 GKM      -0.093900
     11 C01        -26.3750    -0.6490    -1.0670 ca         1 GKM       0.555300
     12 C02        -26.5430    -1.7210    -3.8400 c5         1 GKM      -0.111400
     13 C03        -29.4260    -0.6880    -9.4690 c3         1 GKM      -0.048200
     14 C04        -28.4260    -0.1140   -10.4630 c2         1 GKM      -0.188200
     15 C05        -25.8410     0.5690    -8.0670 cx         1 GKM      -0.070600
     16 C06        -26.7540    -0.7900    -6.1940 c          1 GKM       0.593100
     17 C07        -24.8610    -0.4270    -8.7170 c          1 GKM       0.681100
     18 C08        -28.9190    -1.8950    -3.4370 c5         1 GKM       0.104000
     19 C09        -31.1150    -0.7340    -5.2500 c3         1 GKM       0.055700
     20 C11        -29.4160    -2.2340    -9.4330 c3         1 GKM      -0.073400
     21 C12        -27.3870     0.7000   -10.1930 c2         1 GKM      -0.191200
     22 C14        -25.7440     1.9900    -8.5870 cx         1 GKM      -0.096400
     23 C16        -25.8240     0.6470    -0.7970 ca         1 GKM       0.320300
     24 C18        -27.2200    -0.6200    -4.7160 c5         1 GKM       0.029700
     25 C19        -29.6700    -0.1570    -5.1420 c          1 GKM       0.591100
     26 C23        -20.5000    -2.5060    -6.2650 cx         1 GKM      -0.080400
     27 C27        -35.6460     2.9380    -3.7310 c5         1 GKM      -0.093900
     28 C29        -36.3120     0.7720    -4.9740 c3         1 GKM      -0.107100
     29 C30        -24.6980    -1.6100     0.2090 ca         1 GKM       0.307000
     30 C31        -24.0800    -2.7490     0.7520 ca         1 GKM      -0.203000
     31 C32        -22.9160    -2.6310     1.5370 ca         1 GKM       0.165100
     32 C33        -22.7530    -5.0690     1.9000 c3         1 GKM       0.145900
     33 C34        -22.3700    -1.3640     1.7790 ca         1 GKM      -0.140000
     34 C35        -22.9760    -0.2150     1.2450 ca         1 GKM      -0.029000
     35 C36        -24.1380    -0.3110     0.4580 ca         1 GKM       0.165000
     36 C37        -23.0210    -2.8400    -5.5610 c3         1 GKM      -0.044100
     37 C53        -34.7820     3.3150    -2.4850 c5         1 GKM      -0.077900
     38 C54        -34.5970     1.9780    -1.6990 c5         1 GKM      -0.077900
     39 N38        -28.6610    -0.9390    -4.5420 n          1 GKM      -0.384800
     40 N39        -26.1550     0.3660    -6.6600 ns         1 GKM      -0.476900
     41 N40        -23.8260    -0.7420    -7.9010 ns         1 GKM      -0.573300
     42 N41        -32.0890     0.3380    -4.9690 ns         1 GKM      -0.473900
     43 N42        -25.8160    -1.7760    -0.5430 nb         1 GKM      -0.757000
     44 N43        -24.7030     0.8190    -0.0430 nb         1 GKM      -0.613000
     45 O44        -27.5410    -0.7310    -1.8190 os         1 GKM      -0.445300
     46 O45        -29.3860     0.9290    -5.6380 o          1 GKM      -0.629100
     47 O46        -26.8700    -1.7950    -6.8820 o          1 GKM      -0.567100
     48 O47        -21.5720    -1.1750    -8.9490 o          1 GKM      -0.516500
     49 O48        -23.2240    -3.0890    -8.6770 o          1 GKM      -0.516500
     50 O49        -33.8710    -0.9490    -4.3380 o          1 GKM      -0.552000
     51 O50        -33.9620     1.3730    -4.4190 os         1 GKM      -0.465100
     52 O51        -22.2780    -3.7230     2.0880 os         1 GKM      -0.335100
     53 O55        -24.9670    -0.8760    -9.8480 o          1 GKM      -0.540100
     54 S52        -22.6200    -1.8490    -8.1750 s6         1 GKM       1.255800
     55 H102       -30.8170    -3.4010    -6.4660 hc         1 GKM       0.048700
     56 H101       -29.4440    -2.3550    -6.7520 hc         1 GKM       0.048700
     57 H131       -27.8580     1.5050    -8.2480 hc         1 GKM       0.101700
     58 H152       -25.9630     2.8200    -0.9670 hc         1 GKM       0.060700
     59 H153       -26.3770     1.9400    -2.4470 hc         1 GKM       0.060700
     60 H151       -27.5130     1.9760    -1.0880 hc         1 GKM       0.060700
     61 H171       -27.4290    -2.8390    -2.1000 h1         1 GKM       0.090700
     62 H201       -31.2650    -0.5230    -7.3970 hc         1 GKM       0.057700
     63 H202       -32.4260    -1.6450    -6.7280 hc         1 GKM       0.057700
     64 H212       -31.5060    -2.6690    -8.9700 hc         1 GKM       0.036700
     65 H211       -30.3950    -3.9830    -8.6440 hc         1 GKM       0.036700
     66 H242       -21.0820    -0.9580    -4.7610 hc         1 GKM       0.087950
     67 H241       -20.7120    -0.2860    -6.4210 hc         1 GKM       0.087950
     68 H282       -36.5100     0.9860    -2.1390 hc         1 GKM       0.058450
     69 H281       -35.1340    -0.0820    -2.3130 hc         1 GKM       0.058450
     70 H022       -26.4340    -2.6650    -4.3890 hc         1 GKM       0.076200
     71 H021       -25.5390    -1.4380    -3.5090 hc         1 GKM       0.076200
     72 H032       -29.2240    -0.3170    -8.4590 hc         1 GKM       0.046700
     73 H031       -30.4340    -0.3450    -9.7330 hc         1 GKM       0.046700
     74 H041       -28.6150    -0.4110   -11.4970 ha         1 GKM       0.168000
     75 H082       -29.7380    -1.5700    -2.7820 h1         1 GKM       0.078200
     76 H081       -29.1650    -2.8890    -3.8340 h1         1 GKM       0.078200
     77 H091       -31.2460    -1.5250    -4.5030 h1         1 GKM       0.081700
     78 H111       -29.5280    -2.6080   -10.4580 hc         1 GKM       0.048200
     79 H112       -28.4310    -2.5730    -9.0900 hc         1 GKM       0.048200
     80 H121       -26.7510     1.0450   -11.0110 ha         1 GKM       0.190000
     81 H142       -25.0890     2.1830    -9.4330 hc         1 GKM       0.086700
     82 H141       -25.7970     2.8030    -7.8660 hc         1 GKM       0.086700
     83 H181       -26.9960     0.3910    -4.3500 h1         1 GKM       0.074700
     84 H232       -20.2290    -3.2160    -5.4860 hc         1 GKM       0.087950
     85 H231       -19.8620    -2.5440    -7.1460 hc         1 GKM       0.087950
     86 H271       -36.7110     3.1030    -3.5280 hc         1 GKM       0.058450
     87 H272       -35.3950     3.5480    -4.6070 hc         1 GKM       0.058450
     88 H293       -37.3520     1.0400    -4.7550 hc         1 GKM       0.052700
     89 H291       -36.0940     1.1060    -5.9950 hc         1 GKM       0.052700
     90 H292       -36.2570    -0.3210    -4.9530 hc         1 GKM       0.052700
     91 H311       -24.5230    -3.7180     0.5490 ha         1 GKM       0.133000
     92 H333       -22.1000    -5.7790     2.4220 h1         1 GKM       0.044700
     93 H332       -23.7680    -5.1830     2.3020 h1         1 GKM       0.044700
     94 H331       -22.7620    -5.3340     0.8360 h1         1 GKM       0.044700
     95 H341       -21.4720    -1.2720     2.3850 ha         1 GKM       0.135000
     96 H351       -22.5410     0.7620     1.4420 ha         1 GKM       0.136000
     97 H373       -22.6440    -3.0080    -4.5450 hc         1 GKM       0.054367
     98 H372       -23.9290    -2.2310    -5.4750 hc         1 GKM       0.054367
     99 H371       -23.3100    -3.8170    -5.9680 hc         1 GKM       0.054367
    100 H531       -33.8100     3.7240    -2.7860 hc         1 GKM       0.046950
    101 H532       -35.2730     4.0850    -1.8780 hc         1 GKM       0.046950
    102 H541       -33.5430     1.6760    -1.6900 hc         1 GKM       0.046950
    103 H542       -34.9090     2.0660    -0.6520 hc         1 GKM       0.046950
    104 H391       -26.1140     1.1500    -6.0180 hn         1 GKM       0.322500
    105 H401       -23.7780    -0.3310    -6.9860 hn         1 GKM       0.336500
    106 H411       -31.8070     1.3020    -5.1050 hn         1 GKM       0.327500
    107 C25        -33.3750     0.1440    -4.5570 c          1 GKM       0.641100
@<TRIPOS>BOND
     1     1     5 1   
     2     1     6 1   
     3     1    55 1   
     4     1    56 1   
     5     2    15 1   
     6     2    21 1   
     7     2    22 1   
     8     2    57 1   
     9     3    23 1   
    10     3    58 1   
    11     3    59 1   
    12     3    60 1   
    13     4    12 1   
    14     4    18 1   
    15     4    45 1   
    16     4    61 1   
    17     5    19 1   
    18     5    62 1   
    19     5    63 1   
    20     6    20 1   
    21     6    64 1   
    22     6    65 1   
    23     7     8 1   
    24     7    26 1   
    25     7    36 1   
    26     7    54 1   
    27     8    26 1   
    28     8    66 1   
    29     8    67 1   
    30     9    10 1   
    31     9    27 1   
    32     9    28 1   
    33     9    51 1   
    34    10    38 1   
    35    10    68 1   
    36    10    69 1   
    37    11    23 ar  
    38    11    43 ar  
    39    11    45 1   
    40    12    24 1   
    41    12    70 1   
    42    12    71 1   
    43    13    14 1   
    44    13    20 1   
    45    13    72 1   
    46    13    73 1   
    47    14    21 2   
    48    14    74 1   
    49    15    17 1   
    50    15    22 1   
    51    15    40 1   
    52    16    24 1   
    53    16    40 1   
    54    16    47 2   
    55    17    41 1   
    56    17    53 2   
    57    18    39 1   
    58    18    75 1   
    59    18    76 1   
    60    19    25 1   
    61    19    42 1   
    62    19    77 1   
    63    20    78 1   
    64    20    79 1   
    65    21    80 1   
    66    22    81 1   
    67    22    82 1   
    68    23    44 ar  
    69    24    39 1   
    70    24    83 1   
    71    25    39 1   
    72    25    46 2   
    73    26    84 1   
    74    26    85 1   
    75    27    37 1   
    76    27    86 1   
    77    27    87 1   
    78    28    88 1   
    79    28    89 1   
    80    28    90 1   
    81    29    30 ar  
    82    29    35 ar  
    83    29    43 ar  
    84    30    31 ar  
    85    30    91 1   
    86    31    33 ar  
    87    31    52 1   
    88    32    52 1   
    89    32    92 1   
    90    32    93 1   
    91    32    94 1   
    92    33    34 ar  
    93    33    95 1   
    94    34    35 ar  
    95    34    96 1   
    96    35    44 ar  
    97    36    97 1   
    98    36    98 1   
    99    36    99 1   
   100    37    38 1   
   101    37   100 1   
   102    37   101 1   
   103    38   102 1   
   104    38   103 1   
   105    40   104 1   
   106    41    54 1   
   107    41   105 1   
   108    42   106 1   
   109    42   107 1   
   110    48    54 2   
   111    49    54 2   
   112    50   107 2   
   113    51   107 1   
@<TRIPOS>SUBSTRUCTURE
     1 GKM         1 TEMP              0 ****  ****    0 ROOT
