@<TRIPOS>MOLECULE
GKN
   46    47     1     0     0
SMALL
abcg2


@<TRIPOS>ATOM
      1 C4           4.0400     0.4640     0.5510 ca         1 GKN      -0.058300
      2 C5           5.5380     0.5700     0.5730 c3         1 GKN      -0.021100
      3 C6           6.1570     0.0620    -0.7280 c3         1 GKN      -0.203400
      4 C2           1.8820     1.3200    -0.1400 ca         1 GKN      -0.147000
      5 C12         -4.7330    -1.2800     0.3150 ca         1 GKN      -0.121500
      6 C11         -3.3960    -1.4660     0.6060 ca         1 GKN      -0.072000
      7 C10         -2.4880    -0.4140     0.4870 ca         1 GKN      -0.147600
      8 O1           8.1980    -0.0980    -1.9160 o          1 GKN      -0.739500
      9 C8           3.3770    -0.6310     1.0930 ca         1 GKN      -0.095000
     10 O2           8.3140     0.3220     0.2680 o          1 GKN      -0.739500
     11 C7           7.6940     0.1080    -0.7920 c          1 GKN       0.717000
     12 C3           3.2570     1.4390    -0.0670 ca         1 GKN      -0.095000
     13 C9           1.9960    -0.7720     1.0300 ca         1 GKN      -0.147000
     14 C1           1.2300     0.2110     0.4050 ca         1 GKN      -0.060000
     15 N           -0.1630     0.1700     0.2620 ns         1 GKN      -0.133000
     16 C           -1.0570    -0.6840     0.8170 c          1 GKN       0.615700
     17 O           -0.7430    -1.6270     1.5260 o          1 GKN      -0.592100
     18 C19         -2.9730     0.8300     0.0980 ca         1 GKN      -0.072000
     19 C18         -4.3200     1.0110    -0.1870 ca         1 GKN      -0.121500
     20 C13         -5.2290    -0.0390    -0.0950 ca         1 GKN      -0.049300
     21 C14         -6.7120     0.1160    -0.4060 c3         1 GKN      -0.002700
     22 C17         -7.5220    -0.1980     0.8600 c3         1 GKN      -0.082100
     23 C16         -7.0660     1.5300    -0.8660 c3         1 GKN      -0.082100
     24 C15         -7.0990    -0.8640    -1.5240 c3         1 GKN      -0.082100
     25 H1           5.8310     1.6100     0.7360 hc         1 GKN       0.051700
     26 H2           5.9380     0.0010     1.4140 hc         1 GKN       0.051700
     27 H3           5.8430    -0.9750    -0.8960 hc         1 GKN       0.020200
     28 H4           5.7490     0.6230    -1.5750 hc         1 GKN       0.020200
     29 H5           1.3050     2.1000    -0.6250 ha         1 GKN       0.113000
     30 H9           3.9500    -1.4110     1.5810 ha         1 GKN       0.115500
     31 H10          3.7310     2.3120    -0.5000 ha         1 GKN       0.115500
     32 H11          1.5350    -1.6440     1.4630 ha         1 GKN       0.113000
     33 H12         -0.5350     0.8790    -0.3500 hn         1 GKN       0.144000
     34 H13         -2.3240     1.6940     0.0340 ha         1 GKN       0.124000
     35 H14         -4.6470     1.9990    -0.4810 ha         1 GKN       0.111500
     36 H15         -7.2700     0.4920     1.6670 hc         1 GKN       0.035144
     37 H16         -8.5910    -0.1000     0.6590 hc         1 GKN       0.035144
     38 H17         -7.3450    -1.2120     1.2210 hc         1 GKN       0.035144
     39 H18         -6.5240     1.8160    -1.7680 hc         1 GKN       0.035144
     40 H19         -8.1310     1.5820    -1.0950 hc         1 GKN       0.035144
     41 H20         -6.8610     2.2750    -0.0950 hc         1 GKN       0.035144
     42 H21         -6.8980    -1.9010    -1.2540 hc         1 GKN       0.035144
     43 H22         -8.1660    -0.7800    -1.7420 hc         1 GKN       0.035144
     44 H23         -6.5520    -0.6440    -2.4420 hc         1 GKN       0.035144
     45 H6          -5.4030    -2.1250     0.4100 ha         1 GKN       0.111500
     46 H7          -3.0500    -2.4420     0.9190 ha         1 GKN       0.124000
@<TRIPOS>BOND
     1     1     2 1   
     2     1     9 ar  
     3     1    12 ar  
     4     2     3 1   
     5     2    25 1   
     6     2    26 1   
     7     3    11 1   
     8     3    27 1   
     9     3    28 1   
    10     4    12 ar  
    11     4    14 ar  
    12     4    29 1   
    13     5     6 ar  
    14     5    20 ar  
    15     5    45 1   
    16     6     7 ar  
    17     6    46 1   
    18     7    16 1   
    19     7    18 ar  
    20     8    11 1   
    21     9    13 ar  
    22     9    30 1   
    23    10    11 1   
    24    12    31 1   
    25    13    14 ar  
    26    13    32 1   
    27    14    15 1   
    28    15    16 1   
    29    15    33 1   
    30    16    17 2   
    31    18    19 ar  
    32    18    34 1   
    33    19    20 ar  
    34    19    35 1   
    35    20    21 1   
    36    21    22 1   
    37    21    23 1   
    38    21    24 1   
    39    22    36 1   
    40    22    37 1   
    41    22    38 1   
    42    23    39 1   
    43    23    40 1   
    44    23    41 1   
    45    24    42 1   
    46    24    43 1   
    47    24    44 1   
@<TRIPOS>SUBSTRUCTURE
     1 GKN         1 TEMP              0 ****  ****    0 ROOT
