@<TRIPOS>MOLECULE
GKN
   46    47     1     0     0
SMALL
No Charge or Current Charge


@<TRIPOS>ATOM
      1 C4           4.0940     0.4390     0.5040 ca         1 GKN      -0.058300
      2 C5           5.6080     0.6050     0.5590 c3         1 GKN      -0.021100
      3 C6           6.2950     0.1540    -0.7510 c3         1 GKN      -0.203400
      4 C2           1.8850     1.3260    -0.0270 ca         1 GKN      -0.147000
      5 C12         -4.8730    -1.2780     0.4950 ca         1 GKN      -0.121500
      6 C11         -3.5180    -1.5410     0.7520 ca         1 GKN      -0.072000
      7 C10         -2.5170    -0.6110     0.4000 ca         1 GKN      -0.147600
      8 O1           8.2880     1.4220    -0.9650 o          1 GKN      -0.739500
      9 C8           3.4930    -0.7610     0.9260 ca         1 GKN      -0.095000
     10 O2           8.4790    -0.5730    -0.1790 o          1 GKN      -0.739500
     11 C7           7.8160     0.3440    -0.6380 c          1 GKN       0.717000
     12 C3           3.2810     1.4820     0.0250 ca         1 GKN      -0.095000
     13 C9           2.0960    -0.9170     0.8750 ca         1 GKN      -0.147000
     14 C1           1.2770     0.1300     0.3990 ca         1 GKN      -0.060000
     15 N           -0.1430     0.0500     0.3130 ns         1 GKN      -0.133000
     16 C           -1.0590    -0.9270     0.6920 c          1 GKN       0.615700
     17 O           -0.7380    -1.9810     1.2330 o          1 GKN      -0.592100
     18 C19         -2.9220     0.5950    -0.2210 ca         1 GKN      -0.072000
     19 C18         -4.2790     0.8550    -0.4770 ca         1 GKN      -0.121500
     20 C13         -5.2850    -0.0770    -0.1240 ca         1 GKN      -0.049300
     21 C14         -6.7950     0.1710    -0.3890 c3         1 GKN      -0.002700
     22 C17         -7.5620     0.1480     0.9600 c3         1 GKN      -0.082100
     23 C16         -7.0760     1.5380    -1.0760 c3         1 GKN      -0.082100
     24 C15         -7.3440    -0.9490    -1.3140 c3         1 GKN      -0.082100
     25 H1           5.8630     1.6530     0.7580 hc         1 GKN       0.051700
     26 H2           6.0180     0.0290     1.3980 hc         1 GKN       0.051700
     27 H3           6.0460    -0.9080    -0.8700 hc         1 GKN       0.020200
     28 H4           5.8840     0.7950    -1.5410 hc         1 GKN       0.020200
     29 H5           1.2740     2.1450    -0.4010 ha         1 GKN       0.113000
     30 H9           4.1100    -1.5780     1.2930 ha         1 GKN       0.115500
     31 H10          3.7310     2.4140    -0.3100 ha         1 GKN       0.115500
     32 H11          1.6760    -1.8610     1.2060 ha         1 GKN       0.113000
     33 H12         -0.5650     0.8660    -0.1090 hn         1 GKN       0.144000
     34 H13         -2.1970     1.3490    -0.5160 ha         1 GKN       0.124000
     35 H14         -4.5250     1.7970    -0.9560 ha         1 GKN       0.111500
     36 H15         -7.1650     0.9080     1.6440 hc         1 GKN       0.035144
     37 H16         -8.6290     0.3540     0.8080 hc         1 GKN       0.035144
     38 H17         -7.4830    -0.8260     1.4550 hc         1 GKN       0.035144
     39 H18         -6.5790     1.6010    -2.0510 hc         1 GKN       0.035144
     40 H19         -8.1510     1.6760    -1.2460 hc         1 GKN       0.035144
     41 H20         -6.7330     2.3720    -0.4530 hc         1 GKN       0.035144
     42 H21         -7.2610    -1.9370    -0.8460 hc         1 GKN       0.035144
     43 H22         -8.4030    -0.7820    -1.5460 hc         1 GKN       0.035144
     44 H23         -6.7890    -0.9760    -2.2600 hc         1 GKN       0.035144
     45 H6          -5.6060    -2.0250     0.7850 ha         1 GKN       0.111500
     46 H7          -3.2490    -2.4810     1.2320 ha         1 GKN       0.124000
@<TRIPOS>BOND
     1     1     2 1   
     2     1     9 ar  
     3     1    12 ar  
     4     2     3 1   
     5     2    25 1   
     6     2    26 1   
     7     3    11 1   
     8     3    27 1   
     9     3    28 1   
    10     4    12 ar  
    11     4    14 ar  
    12     4    29 1   
    13     5     6 ar  
    14     5    20 ar  
    15     5    45 1   
    16     6     7 ar  
    17     6    46 1   
    18     7    16 1   
    19     7    18 ar  
    20     8    11 1   
    21     9    13 ar  
    22     9    30 1   
    23    10    11 1   
    24    12    31 1   
    25    13    14 ar  
    26    13    32 1   
    27    14    15 1   
    28    15    16 1   
    29    15    33 1   
    30    16    17 2   
    31    18    19 ar  
    32    18    34 1   
    33    19    20 ar  
    34    19    35 1   
    35    20    21 1   
    36    21    22 1   
    37    21    23 1   
    38    21    24 1   
    39    22    36 1   
    40    22    37 1   
    41    22    38 1   
    42    23    39 1   
    43    23    40 1   
    44    23    41 1   
    45    24    42 1   
    46    24    43 1   
    47    24    44 1   
@<TRIPOS>SUBSTRUCTURE
     1 GKN         1 TEMP              0 ****  ****    0 ROOT
