@<TRIPOS>MOLECULE
GKO
   58    60     1     0     0
SMALL
abcg2


@<TRIPOS>ATOM
      1 N12        -24.7880    -3.9690   -87.6190 ns         1 GKO      -0.463400
      2 C13        -29.1980    -4.3900   -84.4300 ca         1 GKO      -0.129000
      3 C15        -30.2550    -4.3980   -83.5380 ca         1 GKO      -0.055500
      4 C20        -25.5360    -4.5190   -86.5880 cc         1 GKO       0.360900
      5 C21        -26.0570    -6.0350   -85.1970 cd         1 GKO       0.423400
      6 C22        -24.9870    -2.7550   -88.1740 c          1 GKO       0.603100
      7 C24        -32.1010    -5.1050   -79.0520 c3         1 GKO       0.098000
      8 C26        -32.7550    -7.5340   -79.4400 c3         1 GKO       0.006700
      9 C28        -33.1510    -9.8960   -78.2840 c1         1 GKO      -0.249000
     10 C03        -30.1380    -5.0130   -82.2940 ca         1 GKO      -0.154600
     11 C06        -28.9370    -5.6370   -81.9690 ca         1 GKO      -0.055500
     12 C09        -27.8700    -5.6310   -82.8520 ca         1 GKO      -0.129000
     13 C11        -28.0010    -5.0100   -84.0880 ca         1 GKO       0.027800
     14 C19        -26.6090    -4.0250   -85.9010 cd         1 GKO      -0.221000
     15 C23        -24.0170    -2.3960   -89.2920 c6         1 GKO       0.075500
     16 C25        -32.2820    -6.4850   -78.4310 c3         1 GKO      -0.093400
     17 C27        -32.9730    -8.8340   -78.8190 c1         1 GKO      -0.146100
     18 C29        -23.8490    -1.5650   -91.5350 c6         1 GKO       0.132800
     19 C30        -22.9940    -0.4020   -91.0640 c6         1 GKO       0.210800
     20 C31        -23.1490    -1.2240   -88.8110 c6         1 GKO       0.225800
     21 N04        -31.0780    -5.0660   -80.0740 ns         1 GKO      -0.504900
     22 N07        -26.9300    -5.0210   -85.0000 na         1 GKO      -0.074300
     23 N10        -25.2050    -5.7640   -86.1470 nc         1 GKO      -0.707000
     24 N14        -24.7500    -2.0190   -90.4870 n3         1 GKO      -0.692600
     25 N16        -22.2800    -0.7690   -89.8620 nh         1 GKO      -0.758600
     26 N18        -20.2150    -0.9720   -90.9030 n2         1 GKO      -0.851100
     27 O05        -32.4620    -4.9450   -81.8580 o          1 GKO      -0.598100
     28 O08        -25.8520    -1.9860   -87.7920 o          1 GKO      -0.570100
     29 H121       -24.0580    -4.5630   -87.9860 hn         1 GKO       0.336500
     30 H131       -29.3170    -3.9200   -85.3970 ha         1 GKO       0.132500
     31 H151       -31.1850    -3.9230   -83.8200 ha         1 GKO       0.131000
     32 H211       -26.1020    -6.9580   -84.6390 h5         1 GKO       0.061100
     33 H242       -31.8300    -4.3940   -78.2700 h1         1 GKO       0.059700
     34 H241       -33.0380    -4.7600   -79.4870 h1         1 GKO       0.059700
     35 H262       -33.6820    -7.2040   -79.9160 hc         1 GKO       0.064700
     36 H261       -32.0180    -7.6460   -80.2400 hc         1 GKO       0.064700
     37 H281       -33.3120   -10.8400   -77.8160 ha         1 GKO       0.254000
     38 H061       -28.8130    -6.1520   -81.0240 ha         1 GKO       0.131000
     39 H091       -26.9400    -6.1030   -82.5670 ha         1 GKO       0.132500
     40 H191       -27.1360    -3.0900   -85.9370 h4         1 GKO       0.189000
     41 H231       -23.3440    -3.2510   -89.4920 h1         1 GKO       0.029700
     42 H252       -31.3460    -6.8120   -77.9730 hc         1 GKO       0.049700
     43 H251       -33.0140    -6.3990   -77.6250 hc         1 GKO       0.049700
     44 H292       -23.1940    -2.3800   -91.8860 h1         1 GKO       0.044200
     45 H291       -24.4480    -1.2460   -92.3910 h1         1 GKO       0.044200
     46 H302       -23.6290     0.4620   -90.8460 h1         1 GKO       0.074700
     47 H301       -22.2840    -0.1150   -91.8360 h1         1 GKO       0.074700
     48 H312       -22.5580    -1.5340   -87.9470 h1         1 GKO       0.069200
     49 H311       -23.7980    -0.4030   -88.4950 h1         1 GKO       0.069200
     50 H1         -20.6270    -1.5000   -88.9210 h5         1 GKO      -0.033200
     51 H331       -26.1160    -2.7660   -91.8690 h1         1 GKO       0.037367
     52 H332       -25.0140    -3.9990   -91.2410 h1         1 GKO       0.037367
     53 H333       -26.3390    -3.3780   -90.2400 h1         1 GKO       0.037367
     54 H041       -30.1220    -5.0340   -79.7550 hn         1 GKO       0.314500
     55 H181       -19.2720    -1.2500   -90.6650 hn         1 GKO       0.384400
     56 C32        -20.9680    -1.1150   -89.8850 c2         1 GKO       0.630100
     57 C17        -31.3320    -5.0100   -81.3920 c          1 GKO       0.615700
     58 C33        -25.5850    -3.0970   -90.9760 c3         1 GKO       0.142100
@<TRIPOS>BOND
     1     1     4 1   
     2     1     6 1   
     3     1    29 1   
     4     2     3 ar  
     5     2    13 ar  
     6     2    30 1   
     7     3    10 ar  
     8     3    31 1   
     9     4    14 2   
    10     4    23 1   
    11     5    22 1   
    12     5    23 2   
    13     5    32 1   
    14     6    15 1   
    15     6    28 2   
    16     7    16 1   
    17     7    21 1   
    18     7    33 1   
    19     7    34 1   
    20     8    16 1   
    21     8    17 1   
    22     8    35 1   
    23     8    36 1   
    24     9    17 3   
    25     9    37 1   
    26    10    11 ar  
    27    10    57 1   
    28    11    12 ar  
    29    11    38 1   
    30    12    13 ar  
    31    12    39 1   
    32    13    22 1   
    33    14    22 1   
    34    14    40 1   
    35    15    20 1   
    36    15    24 1   
    37    15    41 1   
    38    16    42 1   
    39    16    43 1   
    40    18    19 1   
    41    18    24 1   
    42    18    44 1   
    43    18    45 1   
    44    19    25 1   
    45    19    46 1   
    46    19    47 1   
    47    20    25 1   
    48    20    48 1   
    49    20    49 1   
    50    21    54 1   
    51    21    57 1   
    52    24    58 1   
    53    25    56 1   
    54    26    55 1   
    55    26    56 2   
    56    27    57 2   
    57    50    56 1   
    58    51    58 1   
    59    52    58 1   
    60    53    58 1   
@<TRIPOS>SUBSTRUCTURE
     1 GKO         1 TEMP              0 ****  ****    0 ROOT
