@<TRIPOS>MOLECULE
GKO
   58    60     1     0     0
SMALL
No Charge or Current Charge


@<TRIPOS>ATOM
      1 N12        -24.7650    -2.9240   -86.9350 ns         1 GKO      -0.463400
      2 C13        -28.1390    -5.2670   -84.1420 ca         1 GKO      -0.129000
      3 C15        -29.2810    -5.9380   -83.6710 ca         1 GKO      -0.055500
      4 C20        -25.3370    -3.1840   -85.7200 cc         1 GKO       0.360900
      5 C21        -25.3930    -3.9980   -83.7460 cd         1 GKO       0.423400
      6 C22        -25.3220    -2.3130   -88.0430 c          1 GKO       0.603100
      7 C24        -33.1670    -6.1860   -80.4570 c3         1 GKO       0.098000
      8 C26        -31.9350    -8.2090   -79.3920 c3         1 GKO       0.006700
      9 C28        -31.5420    -9.5790   -77.1230 c1         1 GKO      -0.249000
     10 C03        -30.0430    -5.4110   -82.6040 ca         1 GKO      -0.154600
     11 C06        -29.6280    -4.1890   -82.0180 ca         1 GKO      -0.055500
     12 C09        -28.4850    -3.5220   -82.4920 ca         1 GKO      -0.129000
     13 C11        -27.7350    -4.0540   -83.5540 ca         1 GKO       0.027800
     14 C19        -26.6280    -2.9690   -85.3230 cd         1 GKO      -0.221000
     15 C23        -24.4310    -2.1980   -89.3400 c6         1 GKO       0.075500
     16 C25        -32.8380    -6.9720   -79.1690 c3         1 GKO      -0.093400
     17 C27        -31.7150    -8.9730   -78.1560 c1         1 GKO      -0.146100
     18 C29        -23.1040    -0.8050   -90.9320 c6         1 GKO       0.132800
     19 C30        -21.9500    -1.8510   -90.8880 c6         1 GKO       0.210800
     20 C31        -23.2290    -3.2110   -89.3120 c6         1 GKO       0.225800
     21 N04        -31.9770    -5.5990   -81.0840 ns         1 GKO      -0.504900
     22 N07        -26.6050    -3.3760   -84.0050 na         1 GKO      -0.074300
     23 N10        -24.5780    -3.8090   -84.7830 nc         1 GKO      -0.707000
     24 N14        -23.9250    -0.7980   -89.6760 n3         1 GKO      -0.692600
     25 N16        -22.4940    -3.2170   -90.6080 nh         1 GKO      -0.758600
     26 N18        -22.4320    -3.9650   -92.7860 n2         1 GKO      -0.851100
     27 O05        -31.6140    -7.2260   -82.6260 o          1 GKO      -0.598100
     28 O08        -26.4660    -1.8750   -88.0240 o          1 GKO      -0.570100
     29 H121       -23.8000    -3.2010   -87.0250 hn         1 GKO       0.336500
     30 H131       -27.5700    -5.6920   -84.9660 ha         1 GKO       0.132500
     31 H151       -29.5710    -6.8750   -84.1440 ha         1 GKO       0.131000
     32 H211       -25.1910    -4.5420   -82.8300 h5         1 GKO       0.061100
     33 H242       -33.8600    -5.3710   -80.2090 h1         1 GKO       0.059700
     34 H241       -33.6790    -6.8450   -81.1720 h1         1 GKO       0.059700
     35 H262       -32.3910    -8.8690   -80.1410 hc         1 GKO       0.064700
     36 H261       -30.9620    -7.8960   -79.7870 hc         1 GKO       0.064700
     37 H281       -31.3980   -10.1090   -76.2010 ha         1 GKO       0.254000
     38 H061       -30.1770    -3.7400   -81.1940 ha         1 GKO       0.131000
     39 H091       -28.1820    -2.5840   -82.0310 ha         1 GKO       0.132500
     40 H191       -27.4990    -2.5810   -85.8340 h4         1 GKO       0.189000
     41 H231       -25.0990    -2.5260   -90.1500 h1         1 GKO       0.029700
     42 H252       -32.3600    -6.2950   -78.4500 hc         1 GKO       0.049700
     43 H251       -33.7830    -7.2960   -78.7170 hc         1 GKO       0.049700
     44 H292       -23.7440    -1.0240   -91.8000 h1         1 GKO       0.044200
     45 H291       -22.6650     0.1890   -91.1020 h1         1 GKO       0.044200
     46 H302       -21.2560    -1.5550   -90.0880 h1         1 GKO       0.074700
     47 H301       -21.3760    -1.8190   -91.8260 h1         1 GKO       0.074700
     48 H312       -23.5910    -4.2240   -89.0760 h1         1 GKO       0.069200
     49 H311       -22.5390    -2.9170   -88.5070 h1         1 GKO       0.069200
     50 H1         -23.8210    -4.6490   -91.3840 h5         1 GKO      -0.033200
     51 H331       -24.5580     1.2110   -90.0120 h1         1 GKO       0.037367
     52 H332       -25.7620    -0.0230   -90.4460 h1         1 GKO       0.037367
     53 H333       -25.4490     0.3730   -88.7360 h1         1 GKO       0.037367
     54 H041       -31.6350    -4.7180   -80.7250 hn         1 GKO       0.314500
     55 H181       -22.9280    -4.6350   -93.3900 hn         1 GKO       0.384400
     56 C32        -22.9900    -3.9890   -91.6380 c2         1 GKO       0.630100
     57 C17        -31.2670    -6.1650   -82.1230 c          1 GKO       0.615700
     58 C33        -24.9820     0.2410   -89.7200 c3         1 GKO       0.142100
@<TRIPOS>BOND
     1     1     4 1   
     2     1     6 1   
     3     1    29 1   
     4     2     3 ar  
     5     2    13 ar  
     6     2    30 1   
     7     3    10 ar  
     8     3    31 1   
     9     4    14 2   
    10     4    23 1   
    11     5    22 1   
    12     5    23 2   
    13     5    32 1   
    14     6    15 1   
    15     6    28 2   
    16     7    16 1   
    17     7    21 1   
    18     7    33 1   
    19     7    34 1   
    20     8    16 1   
    21     8    17 1   
    22     8    35 1   
    23     8    36 1   
    24     9    17 3   
    25     9    37 1   
    26    10    11 ar  
    27    10    57 1   
    28    11    12 ar  
    29    11    38 1   
    30    12    13 ar  
    31    12    39 1   
    32    13    22 1   
    33    14    22 1   
    34    14    40 1   
    35    15    20 1   
    36    15    24 1   
    37    15    41 1   
    38    16    42 1   
    39    16    43 1   
    40    18    19 1   
    41    18    24 1   
    42    18    44 1   
    43    18    45 1   
    44    19    25 1   
    45    19    46 1   
    46    19    47 1   
    47    20    25 1   
    48    20    48 1   
    49    20    49 1   
    50    21    54 1   
    51    21    57 1   
    52    24    58 1   
    53    25    56 1   
    54    26    55 1   
    55    26    56 2   
    56    27    57 2   
    57    50    56 1   
    58    51    58 1   
    59    52    58 1   
    60    53    58 1   
@<TRIPOS>SUBSTRUCTURE
     1 GKO         1 TEMP              0 ****  ****    0 ROOT
