@<TRIPOS>MOLECULE
GKP
   50    51     1     0     0
SMALL
No Charge or Current Charge


@<TRIPOS>ATOM
      1 C1          -4.6870     2.1380     0.4220 ca         1 GKP      -0.099000
      2 C10         -0.6800    -3.1920    -0.4190 c3         1 GKP       0.041300
      3 C11         -0.3240    -3.3640    -1.9310 c          1 GKP       0.720000
      4 C12          0.5970    -3.1920     0.4610 c3         1 GKP       0.041300
      5 C14          3.3370    -0.6810     0.1450 ce         1 GKP      -0.164200
      6 C15          4.6340    -0.3340     0.4120 cf         1 GKP      -0.192700
      7 C16          5.3620     0.9100     0.0890 ca         1 GKP      -0.006800
      8 C17          6.7120     1.0360     0.4730 ca         1 GKP      -0.146000
      9 C18          7.4280     2.2080     0.1790 ca         1 GKP       0.101100
     10 C19          6.8040     3.2700    -0.5030 ca         1 GKP       0.046600
     11 C2          -5.3770     3.3370     0.6740 ca         1 GKP      -0.168000
     12 C20          5.4590     3.1530    -0.8890 ca         1 GKP      -0.168000
     13 C21          4.7420     1.9790    -0.5940 ca         1 GKP      -0.099000
     14 C22          0.2370    -3.2730     1.9800 c          1 GKP       0.720000
     15 C3          -6.7230     3.4730     0.2940 ca         1 GKP       0.046600
     16 C4          -7.3820     2.3940    -0.3450 ca         1 GKP       0.101100
     17 C5          -6.6850     1.1980    -0.5930 ca         1 GKP      -0.146000
     18 C6          -5.3350     1.0590    -0.2140 ca         1 GKP      -0.006800
     19 C7          -4.6270    -0.2250    -0.4930 ce         1 GKP      -0.192700
     20 C8          -3.3350    -0.5810    -0.2190 cf         1 GKP      -0.164200
     21 C9          -2.7400    -1.9050    -0.5510 c          1 GKP       0.600300
     22 O1          -3.3560    -2.8220    -1.0810 o          1 GKP      -0.520500
     23 O10          0.4860    -2.3260     2.7170 o          1 GKP      -0.735500
     24 O11         -8.6940     2.4980    -0.7260 oh         1 GKP      -0.539100
     25 O12         -7.3710     4.6520     0.5520 oh         1 GKP      -0.550600
     26 O2          -1.4390    -1.9830    -0.1240 os         1 GKP      -0.385600
     27 O3          -0.5420    -2.4490    -2.7180 o          1 GKP      -0.735500
     28 O4           0.1200    -4.4480    -2.2910 o          1 GKP      -0.735500
     29 O5           1.3990    -2.0280     0.1040 os         1 GKP      -0.385600
     30 O6           3.2840    -2.8820     1.1110 o          1 GKP      -0.520500
     31 O7           7.5030     4.4120    -0.7900 oh         1 GKP      -0.550600
     32 O8           8.7350     2.3240     0.5530 oh         1 GKP      -0.539100
     33 O9          -0.2440    -4.3200     2.3950 o          1 GKP      -0.735500
     34 H1          -3.6470     2.0600     0.7260 ha         1 GKP       0.132000
     35 H2          -1.2660    -4.0770    -0.1420 h1         1 GKP       0.076700
     36 H3           1.1520    -4.1110     0.2310 h1         1 GKP       0.076700
     37 H4           2.6810     0.0080    -0.3800 ha         1 GKP       0.192500
     38 H5           5.2380    -1.0740     0.9420 ha         1 GKP       0.190500
     39 H6           7.2100     0.2270     1.0000 ha         1 GKP       0.123000
     40 H7          -4.8580     4.1570     1.1650 ha         1 GKP       0.102500
     41 H8           4.9640     3.9650    -1.4170 ha         1 GKP       0.102500
     42 H9           3.7030     1.9110    -0.9030 ha         1 GKP       0.132000
     43 H10         -7.1910     0.3700    -1.0840 ha         1 GKP       0.123000
     44 H11         -5.2530    -0.9710    -0.9890 ha         1 GKP       0.190500
     45 H12         -2.6640     0.1180     0.2720 ha         1 GKP       0.192500
     46 H13         -8.9670     1.6550    -1.1470 ho         1 GKP       0.459500
     47 H14         -6.7460     5.2640     0.9950 ho         1 GKP       0.455500
     48 H16          6.9090     5.0340    -1.2640 ho         1 GKP       0.455500
     49 H17          9.0250     3.2130     0.2470 ho         1 GKP       0.459500
     50 C13          2.7050    -1.9770     0.5210 c          1 GKP       0.600300
@<TRIPOS>BOND
     1     1    11 ar  
     2     1    18 ar  
     3     1    34 1   
     4     2     3 1   
     5     2     4 1   
     6     2    26 1   
     7     2    35 1   
     8     3    27 1   
     9     3    28 1   
    10     4    14 1   
    11     4    29 1   
    12     4    36 1   
    13     5     6 2   
    14     5    37 1   
    15     5    50 1   
    16     6     7 1   
    17     6    38 1   
    18     7     8 ar  
    19     7    13 ar  
    20     8     9 ar  
    21     8    39 1   
    22     9    10 ar  
    23     9    32 1   
    24    10    12 ar  
    25    10    31 1   
    26    11    15 ar  
    27    11    40 1   
    28    12    13 ar  
    29    12    41 1   
    30    13    42 1   
    31    14    23 1   
    32    14    33 1   
    33    15    16 ar  
    34    15    25 1   
    35    16    17 ar  
    36    16    24 1   
    37    17    18 ar  
    38    17    43 1   
    39    18    19 1   
    40    19    20 2   
    41    19    44 1   
    42    20    21 1   
    43    20    45 1   
    44    21    22 2   
    45    21    26 1   
    46    24    46 1   
    47    25    47 1   
    48    29    50 1   
    49    30    50 2   
    50    31    48 1   
    51    32    49 1   
@<TRIPOS>SUBSTRUCTURE
     1 GKP         1 TEMP              0 ****  ****    0 ROOT
