@<TRIPOS>MOLECULE
GKP
   50    51     1     0     0
SMALL
bcc


@<TRIPOS>ATOM
      1 C1          -4.8350     2.0050     0.6000 ca         1 GKP      -0.117000
      2 C10         -0.6350    -2.9540    -0.4250 c3         1 GKP       0.018100
      3 C11         -0.2250    -2.9480    -1.9190 c          1 GKP       0.930600
      4 C12          0.5700    -2.9480     0.4910 c3         1 GKP       0.018100
      5 C14          3.2880    -0.5530     0.1210 ce         1 GKP      -0.114200
      6 C15          4.5830    -0.3400     0.3840 cf         1 GKP      -0.142700
      7 C16          5.3590     0.8440     0.0410 ca         1 GKP      -0.006800
      8 C17          6.6970     0.9020     0.4460 ca         1 GKP      -0.164000
      9 C18          7.4950     1.9930     0.1500 ca         1 GKP       0.101100
     10 C19          6.9510     3.0620    -0.5750 ca         1 GKP       0.046600
     11 C2          -5.6090     3.1250     0.8510 ca         1 GKP      -0.186000
     12 C20          5.6250     3.0100    -0.9840 ca         1 GKP      -0.186000
     13 C21          4.8340     1.9160    -0.6810 ca         1 GKP      -0.117000
     14 C22          0.1640    -2.8780     1.9840 c          1 GKP       0.930600
     15 C3          -6.9020     3.2280     0.3530 ca         1 GKP       0.046600
     16 C4          -7.4280     2.1770    -0.4120 ca         1 GKP       0.101100
     17 C5          -6.6490     1.0610    -0.6550 ca         1 GKP      -0.164000
     18 C6          -5.3430     0.9530    -0.1610 ca         1 GKP      -0.006800
     19 C7          -4.5870    -0.2540    -0.4600 ce         1 GKP      -0.142700
     20 C8          -3.3060    -0.4940    -0.1510 cf         1 GKP      -0.114200
     21 C9          -2.6770    -1.7770    -0.5000 c          1 GKP       0.649300
     22 O1          -3.2360    -2.6980    -1.0550 o          1 GKP      -0.569500
     23 O10          0.5760    -1.9190     2.6510 o          1 GKP      -0.840800
     24 O11         -8.6880     2.3260    -0.8690 oh         1 GKP      -0.500100
     25 O12         -7.6980     4.2900     0.5640 oh         1 GKP      -0.511600
     26 O2          -1.4190    -1.8120    -0.0890 os         1 GKP      -0.362400
     27 O3          -0.6080    -2.0020    -2.6210 o          1 GKP      -0.840800
     28 O4           0.4620    -3.9300    -2.2570 o          1 GKP      -0.840800
     29 O5           1.3760    -1.8350     0.1130 os         1 GKP      -0.362400
     30 O6           3.1880    -2.7340     1.0760 o          1 GKP      -0.569500
     31 O7           7.7780     4.0940    -0.8330 oh         1 GKP      -0.511600
     32 O8           8.7770     1.9980     0.5680 oh         1 GKP      -0.500100
     33 O9          -0.5490    -3.8280     2.3590 o          1 GKP      -0.840800
     34 H1          -3.8350     1.9590     1.0120 ha         1 GKP       0.150000
     35 H2          -1.1950    -3.8690    -0.2160 h1         1 GKP       0.076700
     36 H3           1.1120    -3.8810     0.3170 h1         1 GKP       0.076700
     37 H4           2.6790     0.1830    -0.3890 ha         1 GKP       0.142500
     38 H5           5.1310    -1.1200     0.9030 ha         1 GKP       0.140500
     39 H6           7.1290     0.0780     1.0020 ha         1 GKP       0.141000
     40 H7          -5.2020     3.9350     1.4460 ha         1 GKP       0.120500
     41 H8           5.2070     3.8380    -1.5450 ha         1 GKP       0.120500
     42 H9           3.8070     1.9070    -1.0200 ha         1 GKP       0.150000
     43 H10         -7.0620     0.2490    -1.2450 ha         1 GKP       0.141000
     44 H11         -5.1350    -1.0260    -0.9910 ha         1 GKP       0.140500
     45 H12         -2.6960     0.2350     0.3670 ha         1 GKP       0.142500
     46 H13         -8.9430     1.5590    -1.3930 ho         1 GKP       0.420500
     47 H14         -7.2420     4.9460     1.1040 ho         1 GKP       0.416500
     48 H16          7.3350     4.7690    -1.3590 ho         1 GKP       0.416500
     49 H17          9.2370     2.7830     0.2460 ho         1 GKP       0.420500
     50 C13          2.6390    -1.8150     0.5080 c          1 GKP       0.649300
@<TRIPOS>BOND
     1     1    11 ar  
     2     1    18 ar  
     3     1    34 1   
     4     2     3 1   
     5     2     4 1   
     6     2    26 1   
     7     2    35 1   
     8     3    27 1   
     9     3    28 1   
    10     4    14 1   
    11     4    29 1   
    12     4    36 1   
    13     5     6 2   
    14     5    37 1   
    15     5    50 1   
    16     6     7 1   
    17     6    38 1   
    18     7     8 ar  
    19     7    13 ar  
    20     8     9 ar  
    21     8    39 1   
    22     9    10 ar  
    23     9    32 1   
    24    10    12 ar  
    25    10    31 1   
    26    11    15 ar  
    27    11    40 1   
    28    12    13 ar  
    29    12    41 1   
    30    13    42 1   
    31    14    23 1   
    32    14    33 1   
    33    15    16 ar  
    34    15    25 1   
    35    16    17 ar  
    36    16    24 1   
    37    17    18 ar  
    38    17    43 1   
    39    18    19 1   
    40    19    20 2   
    41    19    44 1   
    42    20    21 1   
    43    20    45 1   
    44    21    22 2   
    45    21    26 1   
    46    24    46 1   
    47    25    47 1   
    48    29    50 1   
    49    30    50 2   
    50    31    48 1   
    51    32    49 1   
@<TRIPOS>SUBSTRUCTURE
     1 GKP         1 TEMP              0 ****  ****    0 ROOT
