@<TRIPOS>MOLECULE
GKQ
   50    53     1     0     0
SMALL
No Charge or Current Charge


@<TRIPOS>ATOM
      1 C           -1.8950     2.7250    -0.3840 ca         1 GKQ       0.052400
      2 N           -2.9440     3.6190    -0.5420 nc         1 GKQ      -0.560100
      3 O            2.2150     3.4460     0.4600 o          1 GKQ      -0.600100
      4 C1          -2.3040     1.4310    -0.5320 ca         1 GKQ      -0.066200
      5 C2          -3.9920     2.8030    -0.7880 cd         1 GKQ       0.418700
      6 N3           2.6950     1.2340     0.4420 ns         1 GKQ      -0.507900
      7 C13          4.1210     1.3620     0.7290 c3         1 GKQ       0.143300
      8 C14          4.7930    -0.0010     0.7690 ca         1 GKQ      -0.098300
      9 C17          4.8920    -0.7090     1.9830 ca         1 GKQ      -0.096000
     10 C18          5.5080    -1.9730     2.0180 ca         1 GKQ      -0.105000
     11 C19          6.0260    -2.5360     0.8390 ca         1 GKQ      -0.099000
     12 C16          5.9260    -1.8340    -0.3740 ca         1 GKQ       0.119000
     13 Cl           6.5710    -2.5390    -1.8510 cl         1 GKQ      -0.203000
     14 C15          5.3110    -0.5710    -0.4110 ca         1 GKQ      -0.096000
     15 C11          0.3840     1.9600     0.0240 ca         1 GKQ      -0.182600
     16 C10         -0.5510     3.0200    -0.1050 ca         1 GKQ       0.015000
     17 C20         -0.0710     0.6180    -0.1350 ca         1 GKQ      -0.077000
     18 C9          -1.4250     0.3470    -0.4150 ca         1 GKQ      -0.120000
     19 N1          -3.6470     1.4420    -0.7940 na         1 GKQ      -0.182600
     20 C4          -4.9080    -0.4220     0.3290 c3         1 GKQ       0.146800
     21 N2          -5.7200    -1.6500     0.1590 n3         1 GKQ      -0.719600
     22 C7          -6.0380    -2.3650     1.4120 c5         1 GKQ       0.156300
     23 C8          -6.9280    -3.5200     0.8860 c5         1 GKQ      -0.079400
     24 C6          -7.6490    -2.8990    -0.3530 c5         1 GKQ      -0.079400
     25 C5          -7.0530    -1.4700    -0.4580 c5         1 GKQ       0.156300
     26 H1          -5.0130     3.1210    -0.9660 h5         1 GKQ       0.061800
     27 H2          -5.3970     0.5660    -1.5430 h1         1 GKQ       0.067700
     28 H3          -3.9580    -0.4640    -1.6220 h1         1 GKQ       0.067700
     29 H4           2.3120     0.3060     0.3200 hn         1 GKQ       0.317500
     30 H5           4.5880     1.9860    -0.0460 h1         1 GKQ       0.065200
     31 H6           4.2480     1.8700     1.6940 h1         1 GKQ       0.065200
     32 H7           4.4910    -0.2810     2.9000 ha         1 GKQ       0.125000
     33 H8           5.5830    -2.5160     2.9580 ha         1 GKQ       0.119000
     34 H9           6.5020    -3.5130     0.8630 ha         1 GKQ       0.130000
     35 H10          5.2370    -0.0390    -1.3560 ha         1 GKQ       0.130000
     36 H11         -0.2450     4.0570     0.0090 ha         1 GKQ       0.151000
     37 H12          0.6110    -0.2240    -0.0440 ha         1 GKQ       0.113000
     38 H13         -1.7710    -0.6770    -0.5350 ha         1 GKQ       0.123000
     39 H14         -3.9890    -0.6710     0.8780 h1         1 GKQ       0.044700
     40 H15         -5.4570     0.3090     0.9390 h1         1 GKQ       0.044700
     41 H17         -5.1410    -2.7370     1.9250 h1         1 GKQ       0.037200
     42 H18         -6.5920    -1.7220     2.1100 h1         1 GKQ       0.037200
     43 H19         -6.3160    -4.3800     0.5880 hc         1 GKQ       0.049450
     44 H20         -7.6310    -3.8720     1.6500 hc         1 GKQ       0.049450
     45 H21         -7.4380    -3.4810    -1.2570 hc         1 GKQ       0.049450
     46 H22         -8.7380    -2.8730    -0.2340 hc         1 GKQ       0.049450
     47 H23         -7.6580    -0.7470     0.1080 h1         1 GKQ       0.037200
     48 H24         -6.9980    -1.1270    -1.5010 h1         1 GKQ       0.037200
     49 C3          -4.4970     0.2580    -0.9970 c3         1 GKQ       0.077600
     50 C12          1.8270     2.2940     0.3250 c          1 GKQ       0.617700
@<TRIPOS>BOND
     1     1     2 1   
     2     1     4 ar  
     3     1    16 ar  
     4     2     5 2   
     5     3    50 2   
     6     4    18 ar  
     7     4    19 1   
     8     5    19 1   
     9     5    26 1   
    10     6     7 1   
    11     6    29 1   
    12     6    50 1   
    13     7     8 1   
    14     7    30 1   
    15     7    31 1   
    16     8     9 ar  
    17     8    14 ar  
    18     9    10 ar  
    19     9    32 1   
    20    10    11 ar  
    21    10    33 1   
    22    11    12 ar  
    23    11    34 1   
    24    12    13 1   
    25    12    14 ar  
    26    14    35 1   
    27    15    16 ar  
    28    15    17 ar  
    29    15    50 1   
    30    16    36 1   
    31    17    18 ar  
    32    17    37 1   
    33    18    38 1   
    34    19    49 1   
    35    20    21 1   
    36    20    39 1   
    37    20    40 1   
    38    20    49 1   
    39    21    22 1   
    40    21    25 1   
    41    22    23 1   
    42    22    41 1   
    43    22    42 1   
    44    23    24 1   
    45    23    43 1   
    46    23    44 1   
    47    24    25 1   
    48    24    45 1   
    49    24    46 1   
    50    25    47 1   
    51    25    48 1   
    52    27    49 1   
    53    28    49 1   
@<TRIPOS>SUBSTRUCTURE
     1 GKQ         1 TEMP              0 ****  ****    0 ROOT
