@<TRIPOS>MOLECULE
GKQ
   50    53     1     0     0
SMALL
bcc


@<TRIPOS>ATOM
      1 C           -1.8500     2.5000    -0.3050 ca         1 GKQ       0.052400
      2 N           -2.9290     3.3250    -0.5170 nc         1 GKQ      -0.560100
      3 O            2.0540     3.1340     1.1320 o          1 GKQ      -0.600100
      4 C1          -2.2340     1.1570    -0.4640 ca         1 GKQ      -0.066200
      5 C2          -3.9110     2.5160    -0.7890 cd         1 GKQ       0.418700
      6 N3           2.7250     1.2700     0.0480 ns         1 GKQ      -0.574900
      7 C13          4.1360     1.4340     0.3050 c3         1 GKQ       0.143300
      8 C14          4.8100     0.1050     0.5250 ca         1 GKQ      -0.098300
      9 C17          4.2980    -0.8110     1.4410 ca         1 GKQ      -0.114000
     10 C18          4.9380    -2.0220     1.6510 ca         1 GKQ      -0.123000
     11 C19          6.0960    -2.3430     0.9550 ca         1 GKQ      -0.117000
     12 C16          6.5960    -1.4260     0.0470 ca         1 GKQ       0.027400
     13 CL           8.0370    -1.8040    -0.8410 cl         1 GKQ      -0.111400
     14 C15          5.9650    -0.2100    -0.1780 ca         1 GKQ      -0.114000
     15 C11          0.3760     1.7740     0.1500 ca         1 GKQ      -0.182600
     16 C10         -0.5350     2.8130     0.0180 ca         1 GKQ      -0.003000
     17 C20         -0.0340     0.4350    -0.0060 ca         1 GKQ      -0.095000
     18 C9          -1.3400     0.1040    -0.3080 ca         1 GKQ      -0.138000
     19 N1          -3.5640     1.2020    -0.7810 na         1 GKQ      -0.153300
     20 C4          -4.9070    -0.5260     0.3400 c3         1 GKQ       0.146800
     21 N2          -5.7860    -1.6490     0.1280 n3         1 GKQ      -0.719600
     22 C7          -6.0230    -2.4290     1.3310 c5         1 GKQ       0.156300
     23 C8          -7.1860    -3.3450     0.9490 c5         1 GKQ      -0.079400
     24 C6          -7.9250    -2.5770    -0.1670 c5         1 GKQ      -0.079400
     25 C5          -7.1140    -1.2930    -0.3480 c5         1 GKQ       0.156300
     26 H1          -4.9230     2.8180    -1.0150 h5         1 GKQ       0.061800
     27 H2          -5.2980     0.4300    -1.5700 h1         1 GKQ       0.067700
     28 H3          -3.9350    -0.6760    -1.5840 h1         1 GKQ       0.067700
     29 H4           2.4620     0.5650    -0.6230 hn         1 GKQ       0.317500
     30 H5           4.6250     1.9660    -0.5170 h1         1 GKQ       0.065200
     31 H6           4.2470     2.0590     1.1920 h1         1 GKQ       0.065200
     32 H7           3.3950    -0.5790     1.9910 ha         1 GKQ       0.143000
     33 H8           4.5350    -2.7290     2.3650 ha         1 GKQ       0.137000
     34 H9           6.5930    -3.2890     1.1180 ha         1 GKQ       0.148000
     35 H10          6.3720     0.4870    -0.9000 ha         1 GKQ       0.148000
     36 H11         -0.2290     3.8430     0.1490 ha         1 GKQ       0.169000
     37 H12          0.6750    -0.3680     0.1430 ha         1 GKQ       0.131000
     38 H13         -1.6410    -0.9310    -0.4090 ha         1 GKQ       0.141000
     39 H14         -4.0290    -0.8720     0.8930 h1         1 GKQ       0.044700
     40 H15         -5.3800     0.2610     0.9530 h1         1 GKQ       0.044700
     41 H17         -5.1230    -2.9720     1.6260 h1         1 GKQ       0.037200
     42 H18         -6.3100    -1.7870     2.1800 h1         1 GKQ       0.037200
     43 H19         -6.8190    -4.3030     0.5800 hc         1 GKQ       0.049450
     44 H20         -7.8250    -3.5550     1.8070 hc         1 GKQ       0.049450
     45 H21         -7.9440    -3.1570    -1.0900 hc         1 GKQ       0.049450
     46 H22         -8.9600    -2.3560     0.0930 hc         1 GKQ       0.049450
     47 H23         -7.5450    -0.4770     0.2560 h1         1 GKQ       0.037200
     48 H24         -7.0930    -0.9530    -1.3850 h1         1 GKQ       0.037200
     49 C3          -4.4500     0.0760    -0.9850 c3         1 GKQ       0.048300
     50 C12          1.7850     2.1260     0.4920 c          1 GKQ       0.684700
@<TRIPOS>BOND
     1     1     2 1   
     2     1     4 ar  
     3     1    16 ar  
     4     2     5 2   
     5     3    50 2   
     6     4    18 ar  
     7     4    19 1   
     8     5    19 1   
     9     5    26 1   
    10     6     7 1   
    11     6    29 1   
    12     6    50 1   
    13     7     8 1   
    14     7    30 1   
    15     7    31 1   
    16     8     9 ar  
    17     8    14 ar  
    18     9    10 ar  
    19     9    32 1   
    20    10    11 ar  
    21    10    33 1   
    22    11    12 ar  
    23    11    34 1   
    24    12    13 1   
    25    12    14 ar  
    26    14    35 1   
    27    15    16 ar  
    28    15    17 ar  
    29    15    50 1   
    30    16    36 1   
    31    17    18 ar  
    32    17    37 1   
    33    18    38 1   
    34    19    49 1   
    35    20    21 1   
    36    20    39 1   
    37    20    40 1   
    38    20    49 1   
    39    21    22 1   
    40    21    25 1   
    41    22    23 1   
    42    22    41 1   
    43    22    42 1   
    44    23    24 1   
    45    23    43 1   
    46    23    44 1   
    47    24    25 1   
    48    24    45 1   
    49    24    46 1   
    50    25    47 1   
    51    25    48 1   
    52    27    49 1   
    53    28    49 1   
@<TRIPOS>SUBSTRUCTURE
     1 GKQ         1 TEMP              0 ****  ****    0 ROOT
