@<TRIPOS>MOLECULE
GKR
   22    21     1     0     0
SMALL
No Charge or Current Charge


@<TRIPOS>ATOM
      1 O1B          3.3210    -1.7110    -0.7190 o          1 GKR      -0.736750
      2 O1A          4.2040     0.0130     0.2270 o          1 GKR      -0.736750
      3 C1           3.2540    -0.5670    -0.2890 c          1 GKR       0.689500
      4 C2           1.9620     0.2740    -0.5810 c3         1 GKR      -0.005200
      5 O2           2.2080     1.7090    -0.4550 oh         1 GKR      -0.752500
      6 C3           0.7790    -0.2140     0.3190 c3         1 GKR       0.162800
      7 O3           0.9960     0.1530     1.6900 oh         1 GKR      -0.746000
      8 C4          -0.6250     0.3560    -0.0890 c3         1 GKR       0.162800
      9 O4          -0.8340     1.6220     0.5840 oh         1 GKR      -0.746000
     10 O5          -1.6760    -1.8710    -0.4460 oh         1 GKR      -0.752500
     11 C5          -1.8170    -0.5990     0.2530 c3         1 GKR      -0.005200
     12 C6          -3.2180     0.0510    -0.0540 c          1 GKR       0.689500
     13 O6A         -4.0440    -0.6470    -0.6290 o          1 GKR      -0.736750
     14 O6B         -3.3990     1.2330     0.2150 o          1 GKR      -0.736750
     15 H21          1.6870     0.0510    -1.6210 h1         1 GKR       0.033700
     16 HO21         3.0640     1.7590     0.0430 ho         1 GKR       0.517500
     17 H31          0.7450    -1.3090     0.2280 h1         1 GKR       0.054700
     18 HO31         0.4430     0.9790     1.7260 ho         1 GKR       0.520500
     19 H42         -0.6310     0.5090    -1.1780 h1         1 GKR       0.054700
     20 H41         -1.8230     1.7680     0.5120 ho         1 GKR       0.520500
     21 HO51        -2.5820    -2.0450    -0.8160 ho         1 GKR       0.517500
     22 H51         -1.8010    -0.7830     1.3350 h1         1 GKR       0.033700
@<TRIPOS>BOND
     1     1     3 1   
     2     2     3 1   
     3     3     4 1   
     4     4     5 1   
     5     4     6 1   
     6     4    15 1   
     7     5    16 1   
     8     6     7 1   
     9     6     8 1   
    10     6    17 1   
    11     7    18 1   
    12     8     9 1   
    13     8    11 1   
    14     8    19 1   
    15     9    20 1   
    16    10    11 1   
    17    10    21 1   
    18    11    12 1   
    19    11    22 1   
    20    12    13 1   
    21    12    14 1   
@<TRIPOS>SUBSTRUCTURE
     1 GKR         1 TEMP              0 ****  ****    0 ROOT
