@<TRIPOS>MOLECULE
GKR
   22    21     1     0     0
SMALL
bcc


@<TRIPOS>ATOM
      1 O1B          3.1750    -1.5760    -0.7000 o          1 GKR      -0.842050
      2 O1A          4.1350     0.2330     0.1950 o          1 GKR      -0.842050
      3 C1           3.1800    -0.3960    -0.3180 c          1 GKR       0.900100
      4 C2           1.8850     0.4320    -0.5000 c3         1 GKR      -0.028400
      5 O2           2.1050     1.7280    -0.0070 oh         1 GKR      -0.630300
      6 C3           0.7080    -0.2540     0.2000 c3         1 GKR       0.139600
      7 O3           0.8760    -0.2200     1.5990 oh         1 GKR      -0.623800
      8 C4          -0.6550     0.2920    -0.2210 c3         1 GKR       0.139600
      9 O4          -0.7850     1.6250     0.2030 oh         1 GKR      -0.623800
     10 O5          -1.6830    -1.9040    -0.0350 oh         1 GKR      -0.630300
     11 C5          -1.8100    -0.5600     0.3430 c3         1 GKR      -0.028400
     12 C6          -3.1670    -0.0160    -0.1470 c          1 GKR       0.900100
     13 O6A         -3.9190    -0.8410    -0.6970 o          1 GKR      -0.842050
     14 O6B         -3.3940     1.2030     0.0370 o          1 GKR      -0.842050
     15 H21          1.6650     0.4580    -1.5790 h1         1 GKR       0.033700
     16 HO21         3.0340     1.6670     0.2900 ho         1 GKR       0.418500
     17 H31          0.7380    -1.3040    -0.1000 h1         1 GKR       0.054700
     18 HO31         0.8960     0.7110     1.8480 ho         1 GKR       0.421500
     19 H42         -0.7030     0.2130    -1.3230 h1         1 GKR       0.054700
     20 H41         -1.7520     1.7880     0.2200 ho         1 GKR       0.421500
     21 HO51        -2.5240    -2.0830    -0.4920 ho         1 GKR       0.418500
     22 H51         -1.7910    -0.4650     1.4400 h1         1 GKR       0.033700
@<TRIPOS>BOND
     1     1     3 1   
     2     2     3 1   
     3     3     4 1   
     4     4     5 1   
     5     4     6 1   
     6     4    15 1   
     7     5    16 1   
     8     6     7 1   
     9     6     8 1   
    10     6    17 1   
    11     7    18 1   
    12     8     9 1   
    13     8    11 1   
    14     8    19 1   
    15     9    20 1   
    16    10    11 1   
    17    10    21 1   
    18    11    12 1   
    19    11    22 1   
    20    12    13 1   
    21    12    14 1   
@<TRIPOS>SUBSTRUCTURE
     1 GKR         1 TEMP              0 ****  ****    0 ROOT
