@<TRIPOS>MOLECULE
GKT
   50    53     1     0     0
SMALL
abcg2


@<TRIPOS>ATOM
      1 C1          -4.9920    -1.3630    -0.8370 ca         1 GKT      -0.018300
      2 C2          -4.1650    -2.3980    -1.2790 ca         1 GKT      -0.125000
      3 C3          -2.7980    -2.3840    -1.0760 ca         1 GKT      -0.038000
      4 C4          -2.2030    -1.3300    -0.3920 ca         1 GKT      -0.162600
      5 C5          -3.0020    -0.2810     0.0550 ca         1 GKT      -0.057000
      6 C6          -4.3700    -0.3070    -0.1700 ca         1 GKT       0.184000
      7 C7          -0.7190    -1.3390    -0.2190 c          1 GKT       0.621700
      8 O           -0.0000    -1.8990    -1.0300 o          1 GKT      -0.582100
      9 I           -5.5020     1.3300     0.5240 i          1 GKT      -0.310000
     10 C           -6.4640    -1.4180    -1.0960 c3         1 GKT      -0.059800
     11 N           -0.2670    -0.6990     0.8850 ns         1 GKT      -0.139000
     12 C8           1.0530    -0.4500     1.2870 ca         1 GKT      -0.012000
     13 C20          2.1710    -0.7990     0.5380 ca         1 GKT      -0.139000
     14 C19          3.4040    -0.4510     1.0770 ca         1 GKT      -0.057200
     15 C11          3.5630     0.2150     2.3020 ca         1 GKT       0.044400
     16 C10          2.4290     0.5470     3.0400 ca         1 GKT      -0.021000
     17 C9           1.1950     0.2110     2.5260 ca         1 GKT      -0.185000
     18 N3           4.6790    -0.6250     0.6170 na         1 GKT      -0.296600
     19 C12          5.5220    -0.0710     1.5260 cc         1 GKT       0.407800
     20 N1           4.8980     0.4410     2.5510 nd         1 GKT      -0.577100
     21 C13          7.0000    -0.1180     1.3220 c3         1 GKT       0.147500
     22 N2           7.3280    -0.0220    -0.0820 n3         1 GKT      -0.741600
     23 C18          8.6820    -0.4730    -0.3600 c6         1 GKT       0.166300
     24 C17          8.9570    -0.4870    -1.8560 c6         1 GKT      -0.075400
     25 C16          8.7060     0.8850    -2.4700 c6         1 GKT      -0.076400
     26 C15          7.3090     1.3690    -2.1030 c6         1 GKT      -0.075400
     27 C14          7.0990     1.3190    -0.5990 c6         1 GKT       0.166300
     28 H1          -4.6150    -3.2360    -1.7970 ha         1 GKT       0.121000
     29 H2          -2.1960    -3.2040    -1.4450 ha         1 GKT       0.139000
     30 H3          -2.5580     0.5730     0.5510 ha         1 GKT       0.127000
     31 H4          -6.7880    -0.5870    -1.7240 hc         1 GKT       0.055700
     32 H5          -6.7310    -2.3430    -1.6040 hc         1 GKT       0.055700
     33 H6          -7.0380    -1.3670    -0.1700 hc         1 GKT       0.055700
     34 H7          -0.9660    -0.3870     1.5420 hn         1 GKT       0.155000
     35 H8           2.1000    -1.3090    -0.4080 ha         1 GKT       0.152000
     36 H9           2.5080     1.0600     3.9900 ha         1 GKT       0.129000
     37 H10          0.3030     0.4670     3.0860 ha         1 GKT       0.109000
     38 H11          4.9730    -1.0340    -0.2580 hn         1 GKT       0.374000
     39 H13          7.4660     0.6640     1.9410 h1         1 GKT       0.061200
     40 H14          7.3680    -1.0760     1.7040 h1         1 GKT       0.061200
     41 H16          9.4290     0.1680     0.1410 h1         1 GKT       0.035700
     42 H17          8.8060    -1.4790     0.0490 h1         1 GKT       0.035700
     43 H18          9.9870    -0.8070    -2.0270 hc         1 GKT       0.047450
     44 H19          8.3080    -1.2290    -2.3310 hc         1 GKT       0.047450
     45 H20          9.4480     1.5950    -2.0880 hc         1 GKT       0.041200
     46 H21          8.8330     0.8520    -3.5540 hc         1 GKT       0.041200
     47 H22          7.1450     2.3900    -2.4550 hc         1 GKT       0.047450
     48 H23          6.5590     0.7380    -2.5880 hc         1 GKT       0.047450
     49 H24          6.0770     1.6270    -0.3640 h1         1 GKT       0.035700
     50 H25          7.7650     2.0490    -0.1060 h1         1 GKT       0.035700
@<TRIPOS>BOND
     1     1     2 ar  
     2     1     6 ar  
     3     1    10 1   
     4     2     3 ar  
     5     2    28 1   
     6     3     4 ar  
     7     3    29 1   
     8     4     5 ar  
     9     4     7 1   
    10     5     6 ar  
    11     5    30 1   
    12     6     9 1   
    13     7     8 2   
    14     7    11 1   
    15    10    31 1   
    16    10    32 1   
    17    10    33 1   
    18    11    12 1   
    19    11    34 1   
    20    12    13 ar  
    21    12    17 ar  
    22    13    14 ar  
    23    13    35 1   
    24    14    15 ar  
    25    14    18 1   
    26    15    16 ar  
    27    15    20 1   
    28    16    17 ar  
    29    16    36 1   
    30    17    37 1   
    31    18    19 1   
    32    18    38 1   
    33    19    20 2   
    34    19    21 1   
    35    21    22 1   
    36    21    39 1   
    37    21    40 1   
    38    22    23 1   
    39    22    27 1   
    40    23    24 1   
    41    23    41 1   
    42    23    42 1   
    43    24    25 1   
    44    24    43 1   
    45    24    44 1   
    46    25    26 1   
    47    25    45 1   
    48    25    46 1   
    49    26    27 1   
    50    26    47 1   
    51    26    48 1   
    52    27    49 1   
    53    27    50 1   
@<TRIPOS>SUBSTRUCTURE
     1 GKT         1 TEMP              0 ****  ****    0 ROOT
