@<TRIPOS>MOLECULE
GKT
   50    53     1     0     0
SMALL
No Charge or Current Charge


@<TRIPOS>ATOM
      1 C1          -5.2340    -1.4870    -0.7080 ca         1 GKT      -0.018300
      2 C2          -4.3910    -2.0870    -1.6610 ca         1 GKT      -0.125000
      3 C3          -2.9940    -1.9990    -1.5390 ca         1 GKT      -0.038000
      4 C4          -2.4020    -1.3070    -0.4570 ca         1 GKT      -0.162600
      5 C5          -3.2570    -0.7040     0.5000 ca         1 GKT      -0.057000
      6 C6          -4.6540    -0.7940     0.3760 ca         1 GKT       0.184000
      7 C7          -0.8890    -1.2320    -0.3570 c          1 GKT       0.621700
      8 O           -0.1750    -1.7630    -1.2020 o          1 GKT      -0.582100
      9 I           -5.8870     0.1620     1.8940 i          1 GKT      -0.310000
     10 C           -6.7470    -1.5950    -0.8600 c3         1 GKT      -0.059800
     11 N           -0.3870    -0.5340     0.7360 ns         1 GKT      -0.139000
     12 C8           0.9370    -0.2470     1.1690 ca         1 GKT      -0.012000
     13 C20          2.1000    -0.6700     0.4760 ca         1 GKT      -0.139000
     14 C19          3.3440    -0.3190     1.0130 ca         1 GKT      -0.057200
     15 C11          3.4860     0.4050     2.1600 ca         1 GKT       0.044400
     16 C10          2.3580     0.8380     2.8690 ca         1 GKT      -0.021000
     17 C9           1.0810     0.5060     2.3630 ca         1 GKT      -0.185000
     18 N3           4.5990    -0.5870     0.5650 na         1 GKT      -0.296600
     19 C12          5.4900    -0.0070     1.4640 cc         1 GKT       0.407800
     20 N1           4.8290     0.6140     2.4670 nd         1 GKT      -0.577100
     21 C13          7.0020    -0.0850     1.3140 c3         1 GKT       0.147500
     22 N2           7.5120    -0.0780    -0.0940 n3         1 GKT      -0.741600
     23 C18          8.9580    -0.4280    -0.1700 c6         1 GKT       0.166300
     24 C17          9.4400    -0.5410    -1.6370 c6         1 GKT      -0.075400
     25 C16          9.1510     0.7610    -2.4190 c6         1 GKT      -0.076400
     26 C15          7.6570     1.1390    -2.2890 c6         1 GKT      -0.075400
     27 C14          7.2270     1.2040    -0.8040 c6         1 GKT       0.166300
     28 H1          -4.8170    -2.6260    -2.5040 ha         1 GKT       0.121000
     29 H2          -2.3710    -2.4750    -2.2950 ha         1 GKT       0.139000
     30 H3          -2.8610    -0.1600     1.3520 ha         1 GKT       0.127000
     31 H4          -7.2070    -0.6030    -0.9480 hc         1 GKT       0.055700
     32 H5          -7.0270    -2.1650    -1.7530 hc         1 GKT       0.055700
     33 H6          -7.1960    -2.1010     0.0040 hc         1 GKT       0.055700
     34 H7          -1.0990    -0.1540     1.3440 hn         1 GKT       0.155000
     35 H8           2.0570    -1.2480    -0.4420 ha         1 GKT       0.152000
     36 H9           2.4650     1.4150     3.7840 ha         1 GKT       0.129000
     37 H10          0.1980     0.8370     2.9040 ha         1 GKT       0.109000
     38 H11          4.8650    -1.0870    -0.2720 hn         1 GKT       0.374000
     39 H13          7.4460     0.7460     1.8780 h1         1 GKT       0.061200
     40 H14          7.3190    -1.0080     1.8160 h1         1 GKT       0.061200
     41 H16          9.5610     0.3320     0.3490 h1         1 GKT       0.035700
     42 H17          9.1450    -1.3880     0.3340 h1         1 GKT       0.035700
     43 H18         10.5150    -0.7630    -1.6600 hc         1 GKT       0.047450
     44 H19          8.9340    -1.3860    -2.1240 hc         1 GKT       0.047450
     45 H20          9.7750     1.5760    -2.0250 hc         1 GKT       0.041200
     46 H21          9.4210     0.6370    -3.4760 hc         1 GKT       0.041200
     47 H22          7.4700     2.1060    -2.7740 hc         1 GKT       0.047450
     48 H23          7.0400     0.3990    -2.8160 hc         1 GKT       0.047450
     49 H24          6.1530     1.4400    -0.7640 h1         1 GKT       0.035700
     50 H25          7.7570     2.0350    -0.3140 h1         1 GKT       0.035700
@<TRIPOS>BOND
     1     1     2 ar  
     2     1     6 ar  
     3     1    10 1   
     4     2     3 ar  
     5     2    28 1   
     6     3     4 ar  
     7     3    29 1   
     8     4     5 ar  
     9     4     7 1   
    10     5     6 ar  
    11     5    30 1   
    12     6     9 1   
    13     7     8 2   
    14     7    11 1   
    15    10    31 1   
    16    10    32 1   
    17    10    33 1   
    18    11    12 1   
    19    11    34 1   
    20    12    13 ar  
    21    12    17 ar  
    22    13    14 ar  
    23    13    35 1   
    24    14    15 ar  
    25    14    18 1   
    26    15    16 ar  
    27    15    20 1   
    28    16    17 ar  
    29    16    36 1   
    30    17    37 1   
    31    18    19 1   
    32    18    38 1   
    33    19    20 2   
    34    19    21 1   
    35    21    22 1   
    36    21    39 1   
    37    21    40 1   
    38    22    23 1   
    39    22    27 1   
    40    23    24 1   
    41    23    41 1   
    42    23    42 1   
    43    24    25 1   
    44    24    43 1   
    45    24    44 1   
    46    25    26 1   
    47    25    45 1   
    48    25    46 1   
    49    26    27 1   
    50    26    47 1   
    51    26    48 1   
    52    27    49 1   
    53    27    50 1   
@<TRIPOS>SUBSTRUCTURE
     1 GKT         1 TEMP              0 ****  ****    0 ROOT
