@<TRIPOS>MOLECULE
GKU
   27    27     1     0     0
SMALL
abcg2


@<TRIPOS>ATOM
      1 C          -54.2770   -11.8520     9.4470 c3         1 GKU      -0.129100
      2 OH         -61.7290   -13.2070     7.2320 oh         1 GKU      -0.537100
      3 CZ         -60.5420   -12.7390     7.6740 ca         1 GKU       0.134100
      4 CE1        -60.3500   -12.2640     8.9680 ca         1 GKU      -0.174500
      5 CD1        -59.1020   -11.7980     9.3590 ca         1 GKU      -0.063000
      6 CE2        -59.4700   -12.7340     6.7840 ca         1 GKU      -0.174500
      7 CD2        -58.2340   -12.2610     7.1930 ca         1 GKU      -0.063000
      8 CG         -58.0200   -11.7860     8.4860 ca         1 GKU      -0.097300
      9 CB         -56.6640   -11.3030     8.9120 c3         1 GKU      -0.018100
     10 CA         -55.6720   -12.4340     9.2100 c3         1 GKU       0.173500
     11 N          -56.1760   -13.2500    10.3000 n7         1 GKU      -0.861400
     12 C10        -55.4480   -14.4790    10.5290 c3         1 GKU       0.151100
     13 H3         -53.5380   -12.6310     9.6430 hc         1 GKU       0.036700
     14 H2         -53.9320   -11.2890     8.5790 hc         1 GKU       0.036700
     15 H1         -54.2820   -11.1750    10.3050 hc         1 GKU       0.036700
     16 H4         -62.3900   -13.1580     7.9330 ho         1 GKU       0.462000
     17 H6         -58.9760   -11.4330    10.3720 ha         1 GKU       0.109000
     18 H7         -59.6100   -13.0970     5.7720 ha         1 GKU       0.117500
     19 H8         -57.4140   -12.2590     6.4830 ha         1 GKU       0.109000
     20 H9         -56.2340   -10.6710     8.1300 hc         1 GKU       0.043700
     21 H10        -56.7530   -10.6700     9.8010 hc         1 GKU       0.043700
     22 H11        -55.6270   -13.0810     8.3250 h1         1 GKU       0.059700
     23 H13        -56.1900   -12.6980    11.1510 hn         1 GKU       0.405000
     24 H16        -55.9110   -15.0300    11.3480 h1         1 GKU       0.027367
     25 H14        -55.5060   -15.1100     9.6400 h1         1 GKU       0.027367
     26 H15        -54.3840   -14.3610    10.7750 h1         1 GKU       0.027367
     27 H5         -61.1740   -12.2570     9.6740 ha         1 GKU       0.117500
@<TRIPOS>BOND
     1     1    10 1   
     2     1    13 1   
     3     1    14 1   
     4     1    15 1   
     5     2     3 1   
     6     2    16 1   
     7     3     4 ar  
     8     3     6 ar  
     9     4     5 ar  
    10     4    27 1   
    11     5     8 ar  
    12     5    17 1   
    13     6     7 ar  
    14     6    18 1   
    15     7     8 ar  
    16     7    19 1   
    17     8     9 1   
    18     9    10 1   
    19     9    20 1   
    20     9    21 1   
    21    10    11 1   
    22    10    22 1   
    23    11    12 1   
    24    11    23 1   
    25    12    24 1   
    26    12    25 1   
    27    12    26 1   
@<TRIPOS>SUBSTRUCTURE
     1 GKU         1 TEMP              0 ****  ****    0 ROOT
