@<TRIPOS>MOLECULE
GKU
   27    27     1     0     0
SMALL
No Charge or Current Charge


@<TRIPOS>ATOM
      1 C          -54.2460   -11.8340     9.4590 c3         1 GKU      -0.129100
      2 OH         -61.7840   -13.2040     7.2140 oh         1 GKU      -0.537100
      3 CZ         -60.5710   -12.7450     7.6320 ca         1 GKU       0.134100
      4 CE1        -60.4150   -12.2390     8.9320 ca         1 GKU      -0.174500
      5 CD1        -59.1590   -11.7670     9.3570 ca         1 GKU      -0.063000
      6 CE2        -59.4760   -12.7800     6.7570 ca         1 GKU      -0.174500
      7 CD2        -58.2200   -12.3080     7.1780 ca         1 GKU      -0.063000
      8 CG         -58.0540   -11.8000     8.4820 ca         1 GKU      -0.097300
      9 CB         -56.6910   -11.2820     8.9350 c3         1 GKU      -0.018100
     10 CA         -55.6580   -12.4080     9.2040 c3         1 GKU       0.173500
     11 N          -56.0870   -13.2220    10.3640 n7         1 GKU      -0.861400
     12 C10        -55.4350   -14.5370    10.5320 c3         1 GKU       0.151100
     13 H3         -53.5040   -12.6330     9.5630 hc         1 GKU       0.036700
     14 H2         -53.9330   -11.2040     8.6180 hc         1 GKU       0.036700
     15 H1         -54.2280   -11.2210    10.3680 hc         1 GKU       0.036700
     16 H4         -62.4240   -13.1040     7.9510 ho         1 GKU       0.462000
     17 H6         -59.0450   -11.3790    10.3660 ha         1 GKU       0.109000
     18 H7         -59.5980   -13.1710     5.7500 ha         1 GKU       0.117500
     19 H8         -57.3760   -12.3370     6.4920 ha         1 GKU       0.109000
     20 H9         -56.2910   -10.6180     8.1590 hc         1 GKU       0.043700
     21 H10        -56.7930   -10.6600     9.8340 hc         1 GKU       0.043700
     22 H11        -55.6120   -13.0340     8.3010 h1         1 GKU       0.059700
     23 H13        -55.9510   -12.6700    11.2190 hn         1 GKU       0.405000
     24 H16        -55.8830   -15.0810    11.3750 h1         1 GKU       0.027367
     25 H14        -55.5550   -15.1520     9.6300 h1         1 GKU       0.027367
     26 H15        -54.3620   -14.4280    10.7350 h1         1 GKU       0.027367
     27 H5         -61.2570   -12.2090     9.6180 ha         1 GKU       0.117500
@<TRIPOS>BOND
     1     1    10 1   
     2     1    13 1   
     3     1    14 1   
     4     1    15 1   
     5     2     3 1   
     6     2    16 1   
     7     3     4 ar  
     8     3     6 ar  
     9     4     5 ar  
    10     4    27 1   
    11     5     8 ar  
    12     5    17 1   
    13     6     7 ar  
    14     6    18 1   
    15     7     8 ar  
    16     7    19 1   
    17     8     9 1   
    18     9    10 1   
    19     9    20 1   
    20     9    21 1   
    21    10    11 1   
    22    10    22 1   
    23    11    12 1   
    24    11    23 1   
    25    12    24 1   
    26    12    25 1   
    27    12    26 1   
@<TRIPOS>SUBSTRUCTURE
     1 GKU         1 TEMP              0 ****  ****    0 ROOT
