@<TRIPOS>MOLECULE
GKW
   38    40     1     0     0
SMALL
bcc


@<TRIPOS>ATOM
      1 C01          5.0510     2.1960     1.6530 c3         1 GKW       0.124700
      2 O02          4.2710     2.4470     0.5010 os         1 GKW      -0.315900
      3 C03          3.5430     1.4400    -0.0160 ca         1 GKW       0.151100
      4 C04          2.7850     1.7390    -1.1490 ca         1 GKW      -0.190500
      5 C05          2.0050     0.7600    -1.7400 ca         1 GKW      -0.071500
      6 C06          1.9590    -0.5340    -1.2290 ca         1 GKW      -0.161300
      7 C07          1.1110    -1.5920    -1.8880 c3         1 GKW       0.102600
      8 N08          0.2070    -2.2410    -0.9650 na         1 GKW      -0.053400
      9 C09          0.3330    -3.5130    -0.4810 cc         1 GKW      -0.101100
     10 C10         -0.6500    -3.7760     0.4310 cd         1 GKW      -0.196200
     11 C11         -1.4370    -2.5920     0.5270 ca         1 GKW      -0.077800
     12 C12         -2.5710    -2.2270     1.2600 ca         1 GKW      -0.088000
     13 C13         -3.0910    -0.9600     1.1080 ca         1 GKW      -0.138000
     14 C14         -2.5050    -0.0290     0.2260 ca         1 GKW      -0.148600
     15 C15         -3.0600     1.3400     0.0230 c          1 GKW       0.689700
     16 O16         -2.9270     1.9530    -1.0250 o          1 GKW      -0.584100
     17 N17         -3.6890     1.8550     1.0950 ns         1 GKW      -0.460400
     18 O18         -4.3560     3.0360     0.9980 oh         1 GKW      -0.376100
     19 C19         -1.3930    -0.3750    -0.5260 ca         1 GKW      -0.071000
     20 C20         -0.8670    -1.6490    -0.3590 ca         1 GKW      -0.059200
     21 C21          2.7190    -0.8200    -0.1030 ca         1 GKW      -0.071500
     22 C22          3.5040     0.1490     0.5080 ca         1 GKW      -0.190500
     23 H1           4.4360     1.8990     2.5060 h1         1 GKW       0.042033
     24 H2           5.8040     1.4230     1.4750 h1         1 GKW       0.042033
     25 H3           5.5570     3.1270     1.8930 h1         1 GKW       0.042033
     26 H4           2.8060     2.7410    -1.5570 ha         1 GKW       0.143500
     27 H5           1.4210     1.0140    -2.6180 ha         1 GKW       0.134000
     28 H6           0.5380    -1.1540    -2.7080 h1         1 GKW       0.064200
     29 H7           1.7350    -2.3710    -2.3290 h1         1 GKW       0.064200
     30 H8           1.1280    -4.1500    -0.8360 h4         1 GKW       0.162000
     31 H9          -0.7930    -4.7030     0.9620 ha         1 GKW       0.158000
     32 H10         -3.0450    -2.9310     1.9330 ha         1 GKW       0.135000
     33 H11         -3.9860    -0.6990     1.6580 ha         1 GKW       0.127000
     34 H12         -3.7480     1.3990     1.9930 hn         1 GKW       0.342500
     35 H13         -3.7160     3.7320     1.1960 ho         1 GKW       0.397000
     36 H14         -0.9520     0.3360    -1.2120 ha         1 GKW       0.156000
     37 H15          2.7070    -1.8170     0.3220 ha         1 GKW       0.134000
     38 H16          4.0750    -0.1220     1.3860 ha         1 GKW       0.143500
@<TRIPOS>BOND
     1     1     2 1   
     2     1    23 1   
     3     1    24 1   
     4     1    25 1   
     5     2     3 1   
     6     3     4 ar  
     7     3    22 ar  
     8     4     5 ar  
     9     4    26 1   
    10     5     6 ar  
    11     5    27 1   
    12     6     7 1   
    13     6    21 ar  
    14     7     8 1   
    15     7    28 1   
    16     7    29 1   
    17     8     9 1   
    18     8    20 1   
    19     9    10 2   
    20     9    30 1   
    21    10    11 1   
    22    10    31 1   
    23    11    12 ar  
    24    11    20 ar  
    25    12    13 ar  
    26    12    32 1   
    27    13    14 ar  
    28    13    33 1   
    29    14    15 1   
    30    14    19 ar  
    31    15    16 2   
    32    15    17 1   
    33    17    18 1   
    34    17    34 1   
    35    18    35 1   
    36    19    20 ar  
    37    19    36 1   
    38    21    22 ar  
    39    21    37 1   
    40    22    38 1   
@<TRIPOS>SUBSTRUCTURE
     1 GKW         1 TEMP              0 ****  ****    0 ROOT
