@<TRIPOS>MOLECULE
GKW
   38    40     1     0     0
SMALL
No Charge or Current Charge


@<TRIPOS>ATOM
      1 C01          5.2130     2.2490     1.6030 c3         1 GKW       0.147900
      2 O02          4.5670     2.3730     0.3240 os         1 GKW      -0.339100
      3 C03          3.7320     1.3940    -0.1760 ca         1 GKW       0.151100
      4 C04          3.1490     1.6100    -1.4340 ca         1 GKW      -0.172500
      5 C05          2.2900     0.6500    -1.9960 ca         1 GKW      -0.053500
      6 C06          2.0010    -0.5390    -1.3000 ca         1 GKW      -0.161300
      7 C07          1.0630    -1.5720    -1.9270 c3         1 GKW       0.131900
      8 N08          0.2000    -2.2800    -0.9620 na         1 GKW      -0.082700
      9 C09          0.3150    -3.6210    -0.5410 cc         1 GKW      -0.151100
     10 C10         -0.7090    -3.7750     0.3840 cd         1 GKW      -0.246200
     11 C11         -1.4440    -2.5460     0.5370 ca         1 GKW      -0.077800
     12 C12         -2.5350    -2.2110     1.3420 ca         1 GKW      -0.070000
     13 C13         -3.0280    -0.8910     1.2640 ca         1 GKW      -0.120000
     14 C14         -2.4270     0.0680     0.3910 ca         1 GKW      -0.148600
     15 C15         -2.9320     1.4950     0.2870 c          1 GKW       0.622700
     16 O16         -2.3850     2.3290    -0.4260 o          1 GKW      -0.584100
     17 N17         -4.0480     1.8180     1.0540 ns         1 GKW      -0.393400
     18 O18         -4.7660     3.0600     0.8460 oh         1 GKW      -0.415100
     19 C19         -1.3170    -0.3280    -0.4040 ca         1 GKW      -0.053000
     20 C20         -0.8540    -1.6500    -0.3060 ca         1 GKW      -0.059200
     21 C21          2.5920    -0.7590    -0.0380 ca         1 GKW      -0.053500
     22 C22          3.4510     0.2010     0.5230 ca         1 GKW      -0.172500
     23 H1           4.4720     2.1590     2.4080 h1         1 GKW       0.042033
     24 H2           5.8680     1.3690     1.6270 h1         1 GKW       0.042033
     25 H3           5.8280     3.1350     1.8060 h1         1 GKW       0.042033
     26 H4           3.3650     2.5260    -1.9770 ha         1 GKW       0.125500
     27 H5           1.8470     0.8350    -2.9730 ha         1 GKW       0.116000
     28 H6           0.4180    -1.0840    -2.6680 h1         1 GKW       0.064200
     29 H7           1.6650    -2.3160    -2.4620 h1         1 GKW       0.064200
     30 H8           1.0710    -4.3070    -0.9120 h4         1 GKW       0.212000
     31 H9          -0.9190    -4.6990     0.9200 ha         1 GKW       0.208000
     32 H10         -2.9870    -2.9420     2.0080 ha         1 GKW       0.117000
     33 H11         -3.8730    -0.6270     1.8940 ha         1 GKW       0.109000
     34 H12         -4.5680     1.0710     1.5080 hn         1 GKW       0.342500
     35 H13         -4.8510     3.4340     1.7550 ho         1 GKW       0.436000
     36 H14         -0.8320     0.3760    -1.0760 ha         1 GKW       0.138000
     37 H15          2.3880    -1.6750     0.5130 ha         1 GKW       0.116000
     38 H16          3.8880     0.0020     1.4970 ha         1 GKW       0.125500
@<TRIPOS>BOND
     1     1     2 1   
     2     1    23 1   
     3     1    24 1   
     4     1    25 1   
     5     2     3 1   
     6     3     4 ar  
     7     3    22 ar  
     8     4     5 ar  
     9     4    26 1   
    10     5     6 ar  
    11     5    27 1   
    12     6     7 1   
    13     6    21 ar  
    14     7     8 1   
    15     7    28 1   
    16     7    29 1   
    17     8     9 1   
    18     8    20 1   
    19     9    10 2   
    20     9    30 1   
    21    10    11 1   
    22    10    31 1   
    23    11    12 ar  
    24    11    20 ar  
    25    12    13 ar  
    26    12    32 1   
    27    13    14 ar  
    28    13    33 1   
    29    14    15 1   
    30    14    19 ar  
    31    15    16 2   
    32    15    17 1   
    33    17    18 1   
    34    17    34 1   
    35    18    35 1   
    36    19    20 ar  
    37    19    36 1   
    38    21    22 ar  
    39    21    37 1   
    40    22    38 1   
@<TRIPOS>SUBSTRUCTURE
     1 GKW         1 TEMP              0 ****  ****    0 ROOT
