@<TRIPOS>MOLECULE
GKX
   52    53     1     0     0
SMALL
No Charge or Current Charge


@<TRIPOS>ATOM
      1 C1          22.3520    -4.0700     9.9420 c6         1 GKX      -0.073400
      2 C2          23.2940    -2.9170     9.5210 c6         1 GKX      -0.072400
      3 C4          22.9610    -3.5500     7.0650 c6         1 GKX      -0.070900
      4 C5          22.0060    -4.7090     7.4770 c6         1 GKX      -0.059700
      5 C6          21.3170    -4.3800     8.8330 c6         1 GKX      -0.070900
      6 C7          20.9400    -5.0310     6.3840 c3         1 GKX      -0.068400
      7 C10         20.9290    -6.3910     2.6530 c3         1 GKX      -0.159400
      8 C11         21.7970    -7.6530     2.7470 c          1 GKX       0.585100
      9 C12         24.1900    -8.4970     2.5280 c3         1 GKX      -0.038300
     10 C13         25.6120    -7.8820     2.7260 c          1 GKX       0.717000
     11 C14         24.1150    -9.3770     1.2510 c3         1 GKX      -0.035100
     12 C15         24.0630    -8.5750    -0.0470 ca         1 GKX      -0.041300
     13 C16         25.2520    -8.1430    -0.6660 ca         1 GKX      -0.099500
     14 C17         25.2040    -7.4060    -1.8620 ca         1 GKX      -0.123500
     15 C18         23.9650    -7.0970    -2.4480 ca         1 GKX      -0.134000
     16 O3          26.4820    -8.5950     3.2070 o          1 GKX      -0.722500
     17 O2          25.7780    -6.6900     2.4960 o          1 GKX      -0.722500
     18 C20         22.8240    -8.2650    -0.6430 ca         1 GKX      -0.099500
     19 C19         22.7750    -7.5270    -1.8390 ca         1 GKX      -0.123500
     20 N1          23.1430    -7.4450     2.5540 ns         1 GKX      -0.460900
     21 O1          21.3230    -8.7640     2.9480 o          1 GKX      -0.664100
     22 C9          20.3930    -5.9380     4.0330 c3         1 GKX      -0.060400
     23 C8          21.5020    -5.5270     5.0310 c3         1 GKX      -0.080400
     24 C3          23.9920    -3.2350     8.1780 c6         1 GKX      -0.073400
     25 H1          21.8330    -3.8050    10.8730 hc         1 GKX       0.035950
     26 H2          22.9440    -4.9700    10.1600 hc         1 GKX       0.035950
     27 H3          24.0470    -2.7450    10.3020 hc         1 GKX       0.029700
     28 H4          22.7190    -1.9840     9.4280 hc         1 GKX       0.029700
     29 H5          23.5050    -3.8080     6.1470 hc         1 GKX       0.036700
     30 H6          22.3770    -2.6470     6.8390 hc         1 GKX       0.036700
     31 H7          22.6030    -5.6230     7.6090 hc         1 GKX       0.054700
     32 H8          20.6440    -3.5200     8.7100 hc         1 GKX       0.036700
     33 H9          20.6890    -5.2240     9.1490 hc         1 GKX       0.036700
     34 H10         20.3190    -4.1450     6.2020 hc         1 GKX       0.030700
     35 H11         20.2600    -5.8020     6.7680 hc         1 GKX       0.030700
     36 H12         21.5060    -5.5660     2.2180 hc         1 GKX       0.049200
     37 H13         20.0670    -6.6090     2.0120 hc         1 GKX       0.049200
     38 H14         24.0230    -9.1500     3.3940 h1         1 GKX       0.057700
     39 H15         23.2290   -10.0180     1.3200 hc         1 GKX       0.048200
     40 H16         24.9710   -10.0630     1.2380 hc         1 GKX       0.048200
     41 H17         26.2160    -8.3780    -0.2190 ha         1 GKX       0.120000
     42 H18         26.1260    -7.0750    -2.3340 ha         1 GKX       0.093500
     43 H19         23.9280    -6.5270    -3.3730 ha         1 GKX       0.089000
     44 H21         21.8970    -8.5950    -0.1790 ha         1 GKX       0.120000
     45 H22         21.8150    -7.2900    -2.2920 ha         1 GKX       0.093500
     46 H23         23.4400    -6.4880     2.3960 hn         1 GKX       0.340500
     47 H24         19.7160    -5.0880     3.8830 hc         1 GKX       0.036200
     48 H25         19.7920    -6.7460     4.4690 hc         1 GKX       0.036200
     49 H26         22.1650    -6.3810     5.2130 hc         1 GKX       0.050700
     50 H27         22.1100    -4.7380     4.5730 hc         1 GKX       0.050700
     51 H28         24.6690    -4.0910     8.3070 hc         1 GKX       0.035950
     52 H29         24.6190    -2.3850     7.8740 hc         1 GKX       0.035950
@<TRIPOS>BOND
     1     1     2 1   
     2     1     5 1   
     3     1    25 1   
     4     1    26 1   
     5     2    24 1   
     6     2    27 1   
     7     2    28 1   
     8     3     4 1   
     9     3    24 1   
    10     3    29 1   
    11     3    30 1   
    12     4     5 1   
    13     4     6 1   
    14     4    31 1   
    15     5    32 1   
    16     5    33 1   
    17     6    23 1   
    18     6    34 1   
    19     6    35 1   
    20     7     8 1   
    21     7    22 1   
    22     7    36 1   
    23     7    37 1   
    24     8    20 1   
    25     8    21 2   
    26     9    10 1   
    27     9    11 1   
    28     9    20 1   
    29     9    38 1   
    30    10    16 1   
    31    10    17 1   
    32    11    12 1   
    33    11    39 1   
    34    11    40 1   
    35    12    13 ar  
    36    12    18 ar  
    37    13    14 ar  
    38    13    41 1   
    39    14    15 ar  
    40    14    42 1   
    41    15    19 ar  
    42    15    43 1   
    43    18    19 ar  
    44    18    44 1   
    45    19    45 1   
    46    20    46 1   
    47    22    23 1   
    48    22    47 1   
    49    22    48 1   
    50    23    49 1   
    51    23    50 1   
    52    24    51 1   
    53    24    52 1   
@<TRIPOS>SUBSTRUCTURE
     1 GKX         1 TEMP              0 ****  ****    0 ROOT
