@<TRIPOS>MOLECULE
GKX
   52    53     1     0     0
SMALL
bcc


@<TRIPOS>ATOM
      1 C1          22.2960    -4.1790    10.0700 c6         1 GKX      -0.073400
      2 C2          22.9830    -2.8550     9.7580 c6         1 GKX      -0.072400
      3 C4          22.6910    -3.3060     7.2940 c6         1 GKX      -0.070900
      4 C5          22.0090    -4.6410     7.5930 c6         1 GKX      -0.059700
      5 C6          21.3280    -4.5790     8.9610 c6         1 GKX      -0.070900
      6 C7          21.0160    -5.0530     6.5090 c3         1 GKX      -0.068400
      7 C10         21.2170    -6.1830     2.7790 c3         1 GKX      -0.159400
      8 C11         22.0350    -7.4570     2.8450 c          1 GKX       0.652100
      9 C12         24.2260    -8.4560     2.3270 c3         1 GKX      -0.038300
     10 C13         25.6720    -7.9050     2.2220 c          1 GKX       0.927600
     11 C14         23.9170    -9.4110     1.1570 c3         1 GKX      -0.035100
     12 C15         23.9710    -8.7420    -0.1860 ca         1 GKX      -0.041300
     13 C16         25.1650    -8.6700    -0.9030 ca         1 GKX      -0.117500
     14 C17         25.2230    -8.0280    -2.1330 ca         1 GKX      -0.141500
     15 C18         24.0840    -7.4410    -2.6690 ca         1 GKX      -0.152000
     16 O3          26.5700    -8.7620     2.2790 o          1 GKX      -0.827800
     17 O2          25.8010    -6.6730     2.0820 o          1 GKX      -0.827800
     18 C20         22.8350    -8.1520    -0.7380 ca         1 GKX      -0.117500
     19 C19         22.8880    -7.5070    -1.9670 ca         1 GKX      -0.141500
     20 N1          23.2890    -7.3630     2.3890 ns         1 GKX      -0.527900
     21 O1          21.5550    -8.5000     3.2810 o          1 GKX      -0.664100
     22 C9          20.6060    -5.8140     4.1280 c3         1 GKX      -0.060400
     23 C8          21.6420    -5.3890     5.1610 c3         1 GKX      -0.080400
     24 C3          23.6650    -2.9000     8.3960 c6         1 GKX      -0.073400
     25 H1          21.7680    -4.1180    11.0250 hc         1 GKX       0.035950
     26 H2          23.0540    -4.9620    10.1860 hc         1 GKX       0.035950
     27 H3          23.7090    -2.6110    10.5380 hc         1 GKX       0.029700
     28 H4          22.2400    -2.0510     9.7640 hc         1 GKX       0.029700
     29 H5          23.2190    -3.3490     6.3380 hc         1 GKX       0.036700
     30 H6          21.9210    -2.5320     7.1860 hc         1 GKX       0.036700
     31 H7          22.7920    -5.4120     7.6490 hc         1 GKX       0.054700
     32 H8          20.5050    -3.8560     8.9170 hc         1 GKX       0.036700
     33 H9          20.8750    -5.5480     9.1920 hc         1 GKX       0.036700
     34 H10         20.2720    -4.2580     6.3790 hc         1 GKX       0.030700
     35 H11         20.4600    -5.9300     6.8580 hc         1 GKX       0.030700
     36 H12         21.8120    -5.3490     2.3990 hc         1 GKX       0.049200
     37 H13         20.4210    -6.3530     2.0490 hc         1 GKX       0.049200
     38 H14         24.1550    -9.0410     3.2490 h1         1 GKX       0.057700
     39 H15         22.9260    -9.8420     1.3140 hc         1 GKX       0.048200
     40 H16         24.6290   -10.2370     1.1980 hc         1 GKX       0.048200
     41 H17         26.0600    -9.1200    -0.4910 ha         1 GKX       0.138000
     42 H18         26.1600    -7.9880    -2.6750 ha         1 GKX       0.111500
     43 H19         24.1270    -6.9430    -3.6290 ha         1 GKX       0.107000
     44 H21         21.8930    -8.2110    -0.2050 ha         1 GKX       0.138000
     45 H22         21.9920    -7.0590    -2.3780 ha         1 GKX       0.111500
     46 H23         23.6630    -6.4680     2.1090 hn         1 GKX       0.340500
     47 H24         19.8930    -4.9990     3.9780 hc         1 GKX       0.036200
     48 H25         20.0260    -6.6600     4.5070 hc         1 GKX       0.036200
     49 H26         22.3810    -6.1860     5.3040 hc         1 GKX       0.050700
     50 H27         22.1950    -4.5300     4.7700 hc         1 GKX       0.050700
     51 H28         24.4910    -3.6200     8.4290 hc         1 GKX       0.035950
     52 H29         24.1120    -1.9300     8.1630 hc         1 GKX       0.035950
@<TRIPOS>BOND
     1     1     2 1   
     2     1     5 1   
     3     1    25 1   
     4     1    26 1   
     5     2    24 1   
     6     2    27 1   
     7     2    28 1   
     8     3     4 1   
     9     3    24 1   
    10     3    29 1   
    11     3    30 1   
    12     4     5 1   
    13     4     6 1   
    14     4    31 1   
    15     5    32 1   
    16     5    33 1   
    17     6    23 1   
    18     6    34 1   
    19     6    35 1   
    20     7     8 1   
    21     7    22 1   
    22     7    36 1   
    23     7    37 1   
    24     8    20 1   
    25     8    21 2   
    26     9    10 1   
    27     9    11 1   
    28     9    20 1   
    29     9    38 1   
    30    10    16 1   
    31    10    17 1   
    32    11    12 1   
    33    11    39 1   
    34    11    40 1   
    35    12    13 ar  
    36    12    18 ar  
    37    13    14 ar  
    38    13    41 1   
    39    14    15 ar  
    40    14    42 1   
    41    15    19 ar  
    42    15    43 1   
    43    18    19 ar  
    44    18    44 1   
    45    19    45 1   
    46    20    46 1   
    47    22    23 1   
    48    22    47 1   
    49    22    48 1   
    50    23    49 1   
    51    23    50 1   
    52    24    51 1   
    53    24    52 1   
@<TRIPOS>SUBSTRUCTURE
     1 GKX         1 TEMP              0 ****  ****    0 ROOT
