@<TRIPOS>MOLECULE
GKY
   59    60     1     0     0
SMALL
abcg2


@<TRIPOS>ATOM
      1 C10         -1.3470    -1.6240    -0.8440 ca         1 GKY      -0.078300
      2 C16          4.4920     1.1890     0.3270 ca         1 GKY      -0.085300
      3 C26         -1.6030    -2.9820    -0.8270 ca         1 GKY      -0.105000
      4 C01         -6.7750     0.4450     2.4150 c3         1 GKY      -0.090600
      5 C02         -5.8830     0.2360     1.2000 c3         1 GKY      -0.077900
      6 C03         -4.7670     1.2700     1.1320 c3         1 GKY       0.172300
      7 C05         -3.2280     2.3290    -0.3940 c3         1 GKY       0.172300
      8 C06         -4.1080     3.2250    -1.2540 c3         1 GKY      -0.077900
      9 C07         -3.3980     4.5160    -1.6410 c3         1 GKY      -0.090600
     10 C08         -2.9180     0.0200     0.2180 c3         1 GKY       0.173800
     11 C09         -2.4320    -0.6140    -1.0870 c3         1 GKY      -0.030100
     12 C11         -0.0420    -1.1880    -0.5860 ca         1 GKY      -0.171000
     13 C12          0.9780    -2.0840    -0.3200 ca         1 GKY       0.118100
     14 C14          2.5970    -0.3680    -0.0390 c3         1 GKY       0.163600
     15 C15          4.0830    -0.2570     0.2570 c3         1 GKY      -0.034100
     16 C17          4.8990     1.8690    -0.8190 ca         1 GKY      -0.105000
     17 C18          5.2400     3.2140    -0.7650 ca         1 GKY      -0.109500
     18 C19          5.1790     3.9000     0.4410 ca         1 GKY      -0.109000
     19 C20          4.7750     3.2320     1.5900 ca         1 GKY      -0.109500
     20 C21          4.4330     1.8870     1.5310 ca         1 GKY      -0.105000
     21 C22          0.7040    -3.4670    -0.3060 ca         1 GKY       0.108100
     22 C24          1.5340    -5.6610     0.0060 c3         1 GKY       0.145900
     23 C25         -0.5850    -3.9000    -0.5620 ca         1 GKY      -0.169000
     24 N04         -3.8800     1.0860    -0.0070 n3         1 GKY      -0.733600
     25 O13          2.2580    -1.7430    -0.0670 os         1 GKY      -0.332100
     26 O23          1.7560    -4.2670    -0.0400 os         1 GKY      -0.322100
     27 H1          -2.6030    -3.3490    -1.0270 ha         1 GKY       0.114000
     28 H2          -6.2050     0.3750     3.3440 hc         1 GKY       0.031200
     29 H3          -7.2490     1.4290     2.3970 hc         1 GKY       0.031200
     30 H4          -7.5690    -0.3010     2.4600 hc         1 GKY       0.031200
     31 H5          -5.4660    -0.7740     1.2290 hc         1 GKY       0.045700
     32 H6          -6.4750     0.2980     0.2830 hc         1 GKY       0.045700
     33 H7          -5.2290     2.2570     1.0570 h1         1 GKY       0.028450
     34 H8          -4.2050     1.2750     2.0820 h1         1 GKY       0.028450
     35 H9          -2.3300     2.0900    -0.9690 h1         1 GKY       0.028450
     36 H10         -2.8730     2.8860     0.4890 h1         1 GKY       0.028450
     37 H11         -4.3980     2.6730    -2.1520 hc         1 GKY       0.045700
     38 H12         -5.0350     3.4670    -0.7290 hc         1 GKY       0.045700
     39 H13         -4.0370     5.1550    -2.2510 hc         1 GKY       0.031200
     40 H14         -3.1060     5.0880    -0.7580 hc         1 GKY       0.031200
     41 H15         -2.4900     4.3120    -2.2120 hc         1 GKY       0.031200
     42 H16         -3.3860    -0.7660     0.8160 h1         1 GKY       0.033200
     43 H17         -2.0550     0.3720     0.8070 h1         1 GKY       0.033200
     44 H18         -2.0620     0.1620    -1.7630 hc         1 GKY       0.053200
     45 H19         -3.2820    -1.0820    -1.5860 hc         1 GKY       0.053200
     46 H20          0.1560    -0.1230    -0.6000 ha         1 GKY       0.118000
     47 H21          2.0190     0.1540     0.7320 h1         1 GKY       0.035200
     48 H22          2.3690     0.1050    -1.0010 h1         1 GKY       0.035200
     49 H23          4.6500    -0.7710    -0.5230 hc         1 GKY       0.063700
     50 H24          4.3030    -0.7560     1.2040 hc         1 GKY       0.063700
     51 H25          4.9520     1.3390    -1.7630 ha         1 GKY       0.113000
     52 H26          5.5570     3.7250    -1.6650 ha         1 GKY       0.113000
     53 H27          5.4480     4.9470     0.4860 ha         1 GKY       0.112000
     54 H28          4.7290     3.7580     2.5350 ha         1 GKY       0.113000
     55 H29          4.1210     1.3740     2.4330 ha         1 GKY       0.113000
     56 H30          2.4870    -6.1180     0.2640 h1         1 GKY       0.038700
     57 H31          0.7970    -5.9340     0.7660 h1         1 GKY       0.038700
     58 H32          1.2060    -6.0550    -0.9590 h1         1 GKY       0.038700
     59 H33         -0.8220    -4.9560    -0.5640 ha         1 GKY       0.118000
@<TRIPOS>BOND
     1     1     3 ar  
     2     1    11 1   
     3     1    12 ar  
     4     2    15 1   
     5     2    16 ar  
     6     2    20 ar  
     7     3    23 ar  
     8     3    27 1   
     9     4     5 1   
    10     4    28 1   
    11     4    29 1   
    12     4    30 1   
    13     5     6 1   
    14     5    31 1   
    15     5    32 1   
    16     6    24 1   
    17     6    33 1   
    18     6    34 1   
    19     7     8 1   
    20     7    24 1   
    21     7    35 1   
    22     7    36 1   
    23     8     9 1   
    24     8    37 1   
    25     8    38 1   
    26     9    39 1   
    27     9    40 1   
    28     9    41 1   
    29    10    11 1   
    30    10    24 1   
    31    10    42 1   
    32    10    43 1   
    33    11    44 1   
    34    11    45 1   
    35    12    13 ar  
    36    12    46 1   
    37    13    21 ar  
    38    13    25 1   
    39    14    15 1   
    40    14    25 1   
    41    14    47 1   
    42    14    48 1   
    43    15    49 1   
    44    15    50 1   
    45    16    17 ar  
    46    16    51 1   
    47    17    18 ar  
    48    17    52 1   
    49    18    19 ar  
    50    18    53 1   
    51    19    20 ar  
    52    19    54 1   
    53    20    55 1   
    54    21    23 ar  
    55    21    26 1   
    56    22    26 1   
    57    22    56 1   
    58    22    57 1   
    59    22    58 1   
    60    23    59 1   
@<TRIPOS>SUBSTRUCTURE
     1 GKY         1 TEMP              0 ****  ****    0 ROOT
