@<TRIPOS>MOLECULE
GKY
   59    60     1     0     0
SMALL
No Charge or Current Charge


@<TRIPOS>ATOM
      1 C10         -1.2780    -1.4350    -1.0800 ca         1 GKY      -0.078300
      2 C16          4.7500     1.0370     0.7320 ca         1 GKY      -0.085300
      3 C26         -1.6060    -2.7970    -1.1980 ca         1 GKY      -0.105000
      4 C01         -6.0670     0.7280     3.1680 c3         1 GKY      -0.090600
      5 C02         -5.2280     0.2810     1.9550 c3         1 GKY      -0.077900
      6 C03         -4.7250     1.4710     1.1010 c3         1 GKY       0.172300
      7 C05         -3.8260     2.3030    -1.0610 c3         1 GKY       0.172300
      8 C06         -5.0610     3.1540    -1.4440 c3         1 GKY      -0.077900
      9 C07         -4.7460     4.2210    -2.5110 c3         1 GKY      -0.090600
     10 C08         -2.9060     0.2270    -0.0500 c3         1 GKY       0.173800
     11 C09         -2.3250    -0.3630    -1.3580 c3         1 GKY      -0.030100
     12 C11          0.0240    -1.0650    -0.6950 ca         1 GKY      -0.171000
     13 C12          1.0020    -2.0520    -0.4290 ca         1 GKY       0.118100
     14 C14          2.7190    -0.3530     0.1080 c3         1 GKY       0.163600
     15 C15          4.1970    -0.3690     0.5400 c3         1 GKY      -0.034100
     16 C17          5.3550     1.7160    -0.3430 ca         1 GKY      -0.105000
     17 C18          5.8590     3.0170    -0.1670 ca         1 GKY      -0.109500
     18 C19          5.7600     3.6460     1.0850 ca         1 GKY      -0.109000
     19 C20          5.1550     2.9740     2.1610 ca         1 GKY      -0.109500
     20 C21          4.6510     1.6740     1.9850 ca         1 GKY      -0.105000
     21 C22          0.6660    -3.4220    -0.5510 ca         1 GKY       0.108100
     22 C24          1.3870    -5.7850    -0.3830 c3         1 GKY       0.145900
     23 C25         -0.6440    -3.7870    -0.9370 ca         1 GKY      -0.169000
     24 N04         -4.1030     1.1100    -0.2080 n3         1 GKY      -0.733600
     25 O13          2.2910    -1.7170    -0.0470 os         1 GKY      -0.332100
     26 O23          1.6390    -4.3720    -0.2850 os         1 GKY      -0.322100
     27 H1          -2.6120    -3.0910    -1.4920 ha         1 GKY       0.114000
     28 H2          -5.4780     1.3760     3.8290 hc         1 GKY       0.031200
     29 H3          -6.9570     1.2800     2.8430 hc         1 GKY       0.031200
     30 H4          -6.3960    -0.1430     3.7470 hc         1 GKY       0.031200
     31 H5          -4.3780    -0.3030     2.3250 hc         1 GKY       0.045700
     32 H6          -5.8340    -0.3830     1.3280 hc         1 GKY       0.045700
     33 H7          -5.6010     2.1080     0.9280 h1         1 GKY       0.028450
     34 H8          -4.0180     2.0600     1.7010 h1         1 GKY       0.028450
     35 H9          -3.3780     1.9800    -2.0090 h1         1 GKY       0.028450
     36 H10         -3.0910     2.9540    -0.5670 h1         1 GKY       0.028450
     37 H11         -5.8520     2.4950    -1.8220 hc         1 GKY       0.045700
     38 H12         -5.4570     3.6650    -0.5580 hc         1 GKY       0.045700
     39 H13         -5.6440     4.8030    -2.7470 hc         1 GKY       0.031200
     40 H14         -3.9740     4.9120    -2.1510 hc         1 GKY       0.031200
     41 H15         -4.3880     3.7520    -3.4350 hc         1 GKY       0.031200
     42 H16         -3.1650    -0.6370     0.5740 h1         1 GKY       0.033200
     43 H17         -2.1080     0.7690     0.4750 h1         1 GKY       0.033200
     44 H18         -1.8700     0.4340    -1.9580 hc         1 GKY       0.053200
     45 H19         -3.1450    -0.7760    -1.9570 hc         1 GKY       0.053200
     46 H20          0.2590    -0.0080    -0.6070 ha         1 GKY       0.118000
     47 H21          2.1220     0.1580     0.8740 h1         1 GKY       0.035200
     48 H22          2.6230     0.1940    -0.8390 h1         1 GKY       0.035200
     49 H23          4.7830    -0.9070    -0.2150 hc         1 GKY       0.063700
     50 H24          4.2900    -0.9430     1.4700 hc         1 GKY       0.063700
     51 H25          5.4340     1.2370    -1.3170 ha         1 GKY       0.113000
     52 H26          6.3260     3.5360    -1.0010 ha         1 GKY       0.113000
     53 H27          6.1500     4.6520     1.2210 ha         1 GKY       0.112000
     54 H28          5.0770     3.4610     3.1310 ha         1 GKY       0.113000
     55 H29          4.1830     1.1620     2.8230 ha         1 GKY       0.113000
     56 H30          2.2920    -6.3500    -0.1300 h1         1 GKY       0.038700
     57 H31          0.5920    -6.0880     0.3110 h1         1 GKY       0.038700
     58 H32          1.0900    -6.0580    -1.4030 h1         1 GKY       0.038700
     59 H33         -0.9350    -4.8280    -1.0390 ha         1 GKY       0.118000
@<TRIPOS>BOND
     1     1     3 ar  
     2     1    11 1   
     3     1    12 ar  
     4     2    15 1   
     5     2    16 ar  
     6     2    20 ar  
     7     3    23 ar  
     8     3    27 1   
     9     4     5 1   
    10     4    28 1   
    11     4    29 1   
    12     4    30 1   
    13     5     6 1   
    14     5    31 1   
    15     5    32 1   
    16     6    24 1   
    17     6    33 1   
    18     6    34 1   
    19     7     8 1   
    20     7    24 1   
    21     7    35 1   
    22     7    36 1   
    23     8     9 1   
    24     8    37 1   
    25     8    38 1   
    26     9    39 1   
    27     9    40 1   
    28     9    41 1   
    29    10    11 1   
    30    10    24 1   
    31    10    42 1   
    32    10    43 1   
    33    11    44 1   
    34    11    45 1   
    35    12    13 ar  
    36    12    46 1   
    37    13    21 ar  
    38    13    25 1   
    39    14    15 1   
    40    14    25 1   
    41    14    47 1   
    42    14    48 1   
    43    15    49 1   
    44    15    50 1   
    45    16    17 ar  
    46    16    51 1   
    47    17    18 ar  
    48    17    52 1   
    49    18    19 ar  
    50    18    53 1   
    51    19    20 ar  
    52    19    54 1   
    53    20    55 1   
    54    21    23 ar  
    55    21    26 1   
    56    22    26 1   
    57    22    56 1   
    58    22    57 1   
    59    22    58 1   
    60    23    59 1   
@<TRIPOS>SUBSTRUCTURE
     1 GKY         1 TEMP              0 ****  ****    0 ROOT
