@<TRIPOS>MOLECULE
GKZ
   60    63     1     0     0
SMALL
No Charge or Current Charge


@<TRIPOS>ATOM
      1 C10         -0.5860     1.9370    -0.2440 ca         1 GKZ       0.158100
      2 C15         -2.8400     2.7840     0.3020 c3         1 GKZ       0.142600
      3 C20         -6.1640    -1.4670     0.0150 c6         1 GKZ      -0.162700
      4 C21         -4.9220    -1.1770     0.9010 c6         1 GKZ      -0.090400
      5 C22         -4.7070     0.3440     1.0600 c6         1 GKZ       0.098100
      6 C26          4.2830    -0.6870     0.1160 ca         1 GKZ      -0.011000
      7 C28          2.8160    -2.5960     0.5840 ca         1 GKZ      -0.102000
      8 C02          5.8830     1.3780     0.3550 cc         1 GKZ       0.282300
      9 C03          4.6220     0.7350     0.3120 cc         1 GKZ      -0.155000
     10 C04          3.6750     1.7290     0.4360 cd         1 GKZ      -0.112000
     11 C07          2.2140     1.7610     0.1760 ca         1 GKZ      -0.139000
     12 C08          1.4200     2.6300     0.9530 ca         1 GKZ      -0.017000
     13 C09          0.0310     2.7100     0.7570 ca         1 GKZ      -0.234000
     14 C11          0.1980     1.1070    -1.0510 ca         1 GKZ      -0.188000
     15 C12          1.5820     1.0210    -0.8540 ca         1 GKZ       0.223100
     16 C16         -4.2640     2.5200    -0.2250 c3         1 GKZ       0.092600
     17 C18         -5.8610     0.7690    -1.1680 c6         1 GKZ       0.098100
     18 C19         -6.0920    -0.7460    -1.3580 c6         1 GKZ      -0.090400
     19 C23         -7.5090    -1.2640     0.7480 c          1 GKZ       0.600100
     20 C27          3.1450    -1.2390     0.7480 ca         1 GKZ      -0.094000
     21 C29          3.6240    -3.4220    -0.2090 ca         1 GKZ       0.123000
     22 C30          4.7620    -2.8940    -0.8350 ca         1 GKZ      -0.102000
     23 C31          5.0930    -1.5370    -0.6700 ca         1 GKZ      -0.094000
     24 N05          4.4330     2.8970     0.6170 na         1 GKZ       0.012800
     25 N06          5.8040     2.6770     0.5500 nd         1 GKZ      -0.498800
     26 N17         -4.6060     1.0270    -0.3170 nx         1 GKZ      -0.661000
     27 N25         -8.2850    -2.3550     0.9100 nt         1 GKZ      -0.596000
     28 O13          2.3120     0.2920    -1.7390 oh         1 GKZ      -0.518100
     29 O14         -1.9420     1.9750    -0.4840 os         1 GKZ      -0.383100
     30 O24         -7.8800    -0.1820     1.1690 o          1 GKZ      -0.597100
     31 Cl           3.2120    -5.1200    -0.4150 cl         1 GKZ      -0.196000
     32 H1          -2.6040     3.8520     0.2040 h1         1 GKZ       0.073700
     33 H2          -2.7870     2.5100     1.3630 h1         1 GKZ       0.073700
     34 H3          -6.1260    -2.5410    -0.2120 hc         1 GKZ       0.100700
     35 H4          -5.0340    -1.6460     1.8890 hc         1 GKZ       0.086700
     36 H5          -4.0260    -1.6210     0.4460 hc         1 GKZ       0.086700
     37 H6          -5.5440     0.8040     1.5970 hx         1 GKZ       0.103450
     38 H7          -3.7890     0.5530     1.6200 hx         1 GKZ       0.103450
     39 H8           1.9380    -3.0060     1.0770 ha         1 GKZ       0.131000
     40 H9           7.1680    -0.3000     0.7880 hc         1 GKZ       0.056033
     41 H10          7.5230     0.5260    -0.7500 hc         1 GKZ       0.056033
     42 H11          7.9900     1.2620     0.7890 hc         1 GKZ       0.056033
     43 H12          1.8760     3.2270     1.7410 ha         1 GKZ       0.129000
     44 H13         -0.5450     3.3770     1.3920 ha         1 GKZ       0.120000
     45 H14         -0.2690     0.5380    -1.8490 ha         1 GKZ       0.143000
     46 H15         -4.9930     3.0190     0.4180 hx         1 GKZ       0.108200
     47 H16         -4.3390     2.9520    -1.2260 hx         1 GKZ       0.108200
     48 H17         -5.7350     1.2730    -2.1330 hx         1 GKZ       0.103450
     49 H18         -6.7100     1.2320    -0.6540 hx         1 GKZ       0.103450
     50 H19         -5.2700    -1.1630    -1.9560 hc         1 GKZ       0.086700
     51 H20         -7.0120    -0.9170    -1.9340 hc         1 GKZ       0.086700
     52 H21          2.5200    -0.6210     1.3880 ha         1 GKZ       0.119500
     53 H22          5.3870    -3.5350    -1.4520 ha         1 GKZ       0.131000
     54 H23          5.9630    -1.1510    -1.1900 ha         1 GKZ       0.119500
     55 H24          4.0580     3.8380     0.7250 hn         1 GKZ       0.379000
     56 H25         -3.7940     0.5940    -0.8160 hn         1 GKZ       0.511000
     57 H26         -7.9830    -3.2530     0.5630 hn         1 GKZ       0.329000
     58 H27         -9.1720    -2.2620     1.3840 hn         1 GKZ       0.329000
     59 H28          3.2300     0.2870    -1.3950 ho         1 GKZ       0.497000
     60 C01          7.2110     0.6750     0.2900 c3         1 GKZ      -0.126400
@<TRIPOS>BOND
     1     1    13 ar  
     2     1    14 ar  
     3     1    29 1   
     4     2    16 1   
     5     2    29 1   
     6     2    32 1   
     7     2    33 1   
     8     3     4 1   
     9     3    18 1   
    10     3    19 1   
    11     3    34 1   
    12     4     5 1   
    13     4    35 1   
    14     4    36 1   
    15     5    26 1   
    16     5    37 1   
    17     5    38 1   
    18     6     9 1   
    19     6    20 ar  
    20     6    23 ar  
    21     7    20 ar  
    22     7    21 ar  
    23     7    39 1   
    24     8     9 1   
    25     8    25 2   
    26     8    60 1   
    27     9    10 2   
    28    10    11 1   
    29    10    24 1   
    30    11    12 ar  
    31    11    15 ar  
    32    12    13 ar  
    33    12    43 1   
    34    13    44 1   
    35    14    15 ar  
    36    14    45 1   
    37    15    28 1   
    38    16    26 1   
    39    16    46 1   
    40    16    47 1   
    41    17    18 1   
    42    17    26 1   
    43    17    48 1   
    44    17    49 1   
    45    18    50 1   
    46    18    51 1   
    47    19    27 1   
    48    19    30 2   
    49    20    52 1   
    50    21    22 ar  
    51    21    31 1   
    52    22    23 ar  
    53    22    53 1   
    54    23    54 1   
    55    24    25 1   
    56    24    55 1   
    57    26    56 1   
    58    27    57 1   
    59    27    58 1   
    60    28    59 1   
    61    40    60 1   
    62    41    60 1   
    63    42    60 1   
@<TRIPOS>SUBSTRUCTURE
     1 GKZ         1 TEMP              0 ****  ****    0 ROOT
