@<TRIPOS>MOLECULE
GKZ
   60    63     1     0     0
SMALL
bcc


@<TRIPOS>ATOM
      1 C10         -0.5590     1.7780    -0.2150 ca         1 GKZ       0.158100
      2 C15         -2.7580     2.3570     0.4900 c3         1 GKZ       0.119400
      3 C20         -6.4890    -1.3730    -0.3310 c6         1 GKZ      -0.162700
      4 C21         -5.1690    -1.3530     0.4460 c6         1 GKZ      -0.090400
      5 C22         -4.7450     0.0520     0.8230 c6         1 GKZ       0.126300
      6 C26          4.3350    -0.6740     0.1460 ca         1 GKZ      -0.011000
      7 C28          3.0650    -2.5940     0.9040 ca         1 GKZ      -0.120000
      8 C02          5.8590     1.4220     0.3820 cc         1 GKZ       0.347600
      9 C03          4.6150     0.7640     0.2110 cc         1 GKZ      -0.220300
     10 C04          3.6780     1.7880     0.2000 cd         1 GKZ      -0.061300
     11 C07          2.2220     1.7720     0.0560 ca         1 GKZ      -0.139000
     12 C08          1.4050     2.3760     1.0050 ca         1 GKZ      -0.035000
     13 C09          0.0250     2.3910     0.8900 ca         1 GKZ      -0.252000
     14 C11          0.2320     1.1620    -1.1790 ca         1 GKZ      -0.206000
     15 C12          1.6130     1.1610    -1.0530 ca         1 GKZ       0.223100
     16 C16         -4.1490     2.2930    -0.0880 c3         1 GKZ       0.120800
     17 C18         -5.8910     0.9520    -1.1640 c6         1 GKZ       0.126300
     18 C19         -6.3690    -0.4390    -1.5300 c6         1 GKZ      -0.090400
     19 C23         -7.6780    -1.0400     0.5650 c          1 GKZ       0.667100
     20 C27          3.3550    -1.2400     0.9630 ca         1 GKZ      -0.112000
     21 C29          3.7700    -3.3970     0.0210 ca         1 GKZ       0.031400
     22 C30          4.7500    -2.8650    -0.8020 ca         1 GKZ      -0.120000
     23 C31          5.0210    -1.5080    -0.7370 ca         1 GKZ      -0.112000
     24 N05          4.3780     2.9250     0.3520 na         1 GKZ       0.012400
     25 N06          5.6860     2.7280     0.4640 nd         1 GKZ      -0.498800
     26 N17         -4.6070     0.9070    -0.3940 nx         1 GKZ      -0.690400
     27 N25         -7.9130    -1.9400     1.5310 nt         1 GKZ      -0.663000
     28 O13          2.3130     0.5740    -2.0360 oh         1 GKZ      -0.479100
     29 O14         -1.8890     1.7430    -0.4390 os         1 GKZ      -0.359900
     30 O24         -8.3570    -0.0350     0.4170 o          1 GKZ      -0.597100
     31 CL           3.4190    -5.0930    -0.0540 cl         1 GKZ      -0.104400
     32 H1          -2.5200     3.4160     0.6290 h1         1 GKZ       0.073700
     33 H2          -2.6950     1.8750     1.4700 h1         1 GKZ       0.073700
     34 H3          -6.6420    -2.3910    -0.7030 hc         1 GKZ       0.100700
     35 H4          -5.2220    -1.9410     1.3620 hc         1 GKZ       0.086700
     36 H5          -4.3900    -1.8160    -0.1640 hc         1 GKZ       0.086700
     37 H6          -5.4670     0.5460     1.4740 hx         1 GKZ       0.103450
     38 H7          -3.7850     0.0300     1.3340 hx         1 GKZ       0.103450
     39 H8           2.3040    -3.0170     1.5450 ha         1 GKZ       0.149000
     40 H9           7.4060     0.5440     1.5740 hc         1 GKZ       0.056033
     41 H10          7.3350    -0.0760    -0.0660 hc         1 GKZ       0.056033
     42 H11          7.9850     1.5310     0.2370 hc         1 GKZ       0.056033
     43 H12          1.8610     2.8390     1.8710 ha         1 GKZ       0.147000
     44 H13         -0.5600     2.8700     1.6620 ha         1 GKZ       0.138000
     45 H14         -0.2300     0.6970    -2.0410 ha         1 GKZ       0.161000
     46 H15         -4.8600     2.7300     0.6110 hx         1 GKZ       0.108200
     47 H16         -4.1940     2.8530    -1.0210 hx         1 GKZ       0.108200
     48 H17         -5.7030     1.5460    -2.0570 hx         1 GKZ       0.103450
     49 H18         -6.6080     1.4800    -0.5390 hx         1 GKZ       0.103450
     50 H19         -5.6700    -0.8820    -2.2440 hc         1 GKZ       0.086700
     51 H20         -7.3190    -0.3370    -2.0540 hc         1 GKZ       0.086700
     52 H21          2.8150    -0.6170     1.6640 ha         1 GKZ       0.137500
     53 H22          5.2900    -3.4970    -1.4950 ha         1 GKZ       0.149000
     54 H23          5.7690    -1.0920    -1.4010 ha         1 GKZ       0.137500
     55 H24          4.0120     3.8650     0.3400 hn         1 GKZ       0.328700
     56 H25         -3.9020     0.4780    -0.9990 hn         1 GKZ       0.455800
     57 H26         -7.3880    -2.7940     1.6050 hn         1 GKZ       0.329000
     58 H27         -8.6870    -1.8180     2.1640 hn         1 GKZ       0.329000
     59 H28          3.2630     0.6710    -1.8930 ho         1 GKZ       0.458000
     60 C01          7.2150     0.8220     0.5360 c3         1 GKZ      -0.126400
@<TRIPOS>BOND
     1     1    13 ar  
     2     1    14 ar  
     3     1    29 1   
     4     2    16 1   
     5     2    29 1   
     6     2    32 1   
     7     2    33 1   
     8     3     4 1   
     9     3    18 1   
    10     3    19 1   
    11     3    34 1   
    12     4     5 1   
    13     4    35 1   
    14     4    36 1   
    15     5    26 1   
    16     5    37 1   
    17     5    38 1   
    18     6     9 1   
    19     6    20 ar  
    20     6    23 ar  
    21     7    20 ar  
    22     7    21 ar  
    23     7    39 1   
    24     8     9 1   
    25     8    25 2   
    26     8    60 1   
    27     9    10 2   
    28    10    11 1   
    29    10    24 1   
    30    11    12 ar  
    31    11    15 ar  
    32    12    13 ar  
    33    12    43 1   
    34    13    44 1   
    35    14    15 ar  
    36    14    45 1   
    37    15    28 1   
    38    16    26 1   
    39    16    46 1   
    40    16    47 1   
    41    17    18 1   
    42    17    26 1   
    43    17    48 1   
    44    17    49 1   
    45    18    50 1   
    46    18    51 1   
    47    19    27 1   
    48    19    30 2   
    49    20    52 1   
    50    21    22 ar  
    51    21    31 1   
    52    22    23 ar  
    53    22    53 1   
    54    23    54 1   
    55    24    25 1   
    56    24    55 1   
    57    26    56 1   
    58    27    57 1   
    59    27    58 1   
    60    28    59 1   
    61    40    60 1   
    62    41    60 1   
    63    42    60 1   
@<TRIPOS>SUBSTRUCTURE
     1 GKZ         1 TEMP              0 ****  ****    0 ROOT
