@<TRIPOS>MOLECULE
GL0
   24    24     1     0     0
SMALL
abcg2


@<TRIPOS>ATOM
      1 O2          18.2620    10.3020    -8.8940 oh         1 GL0      -0.691000
      2 C1          18.7260     9.7300   -11.1480 c6         1 GL0       0.406300
      3 C2          18.4490     9.2010    -9.7450 c6         1 GL0       0.156300
      4 C3          19.5940     8.2930    -9.2880 c6         1 GL0       0.132300
      5 C4          19.8550     7.1970   -10.3310 c6         1 GL0       0.108300
      6 C5          20.0460     7.8480   -11.7020 c6         1 GL0       0.157300
      7 C6          20.2400     6.8370   -12.8110 c3         1 GL0       0.167600
      8 O1          17.6200    10.4320   -11.5810 oh         1 GL0      -0.688000
      9 O4          18.7630     6.3070   -10.2940 oh         1 GL0      -0.705000
     10 O5          18.9250     8.6440   -12.0230 os         1 GL0      -0.473000
     11 O6          20.5880     7.5200   -13.9920 oh         1 GL0      -0.705000
     12 HO2         18.0050     9.9760    -8.0250 ho         1 GL0       0.503000
     13 H1          19.6290    10.3620   -11.1410 h2         1 GL0       0.043700
     14 H2          17.5420     8.5820    -9.8010 h1         1 GL0       0.073700
     15 H4          20.7890     6.6830   -10.0590 h1         1 GL0       0.030700
     16 H5          20.9550     8.4680   -11.6480 h1         1 GL0       0.061700
     17 H61         21.0280     6.1370   -12.4990 h1         1 GL0       0.024200
     18 H62         19.3220     6.2500   -12.9410 h1         1 GL0       0.024200
     19 HO4         19.0340     5.4570   -10.6540 ho         1 GL0       0.506000
     20 HO6         20.6890     6.8710   -14.6940 ho         1 GL0       0.504000
     21 H3          19.3020     7.8080    -8.3440 h1         1 GL0       0.046700
     22 O3          20.7390     9.0910    -9.1090 oh         1 GL0      -0.703000
     23 HO3         21.4330     8.5490    -8.7200 ho         1 GL0       0.501000
     24 HO1         17.8610    10.9600   -12.3500 ho         1 GL0       0.518000
@<TRIPOS>BOND
     1     1     3 1   
     2     1    12 1   
     3     2     3 1   
     4     2     8 1   
     5     2    10 1   
     6     2    13 1   
     7     3     4 1   
     8     3    14 1   
     9     4     5 1   
    10     4    21 1   
    11     4    22 1   
    12     5     6 1   
    13     5     9 1   
    14     5    15 1   
    15     6     7 1   
    16     6    10 1   
    17     6    16 1   
    18     7    11 1   
    19     7    17 1   
    20     7    18 1   
    21     8    24 1   
    22     9    19 1   
    23    11    20 1   
    24    22    23 1   
@<TRIPOS>SUBSTRUCTURE
     1 GL0         1 TEMP              0 ****  ****    0 ROOT
