@<TRIPOS>MOLECULE
GL0
   24    24     1     0     0
SMALL
No Charge or Current Charge


@<TRIPOS>ATOM
      1 O2          18.1840    10.2550    -8.6770 oh         1 GL0      -0.691000
      2 C1          18.7170     9.8160   -11.0990 c6         1 GL0       0.406300
      3 C2          18.3460     9.2270    -9.6840 c6         1 GL0       0.156300
      4 C3          19.4590     8.2360    -9.2160 c6         1 GL0       0.132300
      5 C4          19.7390     7.1690   -10.3260 c6         1 GL0       0.108300
      6 C5          20.0600     7.9090   -11.6730 c6         1 GL0       0.157300
      7 C6          20.3650     6.9330   -12.8570 c3         1 GL0       0.167600
      8 O1          17.6530    10.5570   -11.6690 oh         1 GL0      -0.688000
      9 O4          18.5890     6.3030   -10.4530 oh         1 GL0      -0.705000
     10 O5          18.9520     8.7710   -12.0460 os         1 GL0      -0.473000
     11 O6          20.7010     7.6140   -14.0820 oh         1 GL0      -0.705000
     12 HO2         19.0990    10.3890    -8.3300 ho         1 GL0       0.503000
     13 H1          19.6150    10.4500   -11.0190 h2         1 GL0       0.043700
     14 H2          17.4080     8.6640    -9.7950 h1         1 GL0       0.073700
     15 H4          20.6160     6.5760   -10.0280 h1         1 GL0       0.030700
     16 H5          20.9560     8.5320   -11.5300 h1         1 GL0       0.061700
     17 H61         21.1950     6.2790   -12.5560 h1         1 GL0       0.024200
     18 H62         19.4870     6.2930   -13.0180 h1         1 GL0       0.024200
     19 HO4         18.9040     5.4380   -10.8050 ho         1 GL0       0.506000
     20 HO6         20.7950     6.9240   -14.7790 ho         1 GL0       0.504000
     21 H3          19.0930     7.7100    -8.3210 h1         1 GL0       0.046700
     22 O3          20.6530     8.9790    -8.8810 oh         1 GL0      -0.703000
     23 HO3         21.2590     8.3600    -8.4080 ho         1 GL0       0.501000
     24 HO1         17.5480    10.1220   -12.5430 ho         1 GL0       0.518000
@<TRIPOS>BOND
     1     1     3 1   
     2     1    12 1   
     3     2     3 1   
     4     2     8 1   
     5     2    10 1   
     6     2    13 1   
     7     3     4 1   
     8     3    14 1   
     9     4     5 1   
    10     4    21 1   
    11     4    22 1   
    12     5     6 1   
    13     5     9 1   
    14     5    15 1   
    15     6     7 1   
    16     6    10 1   
    17     6    16 1   
    18     7    11 1   
    19     7    17 1   
    20     7    18 1   
    21     8    24 1   
    22     9    19 1   
    23    11    20 1   
    24    22    23 1   
@<TRIPOS>SUBSTRUCTURE
     1 GL0         1 TEMP              0 ****  ****    0 ROOT
