@<TRIPOS>MOLECULE
GL2
   31    32     1     0     0
SMALL
abcg2


@<TRIPOS>ATOM
      1 C1          -0.0630     0.3760     0.4580 c5         1 GL2       0.273400
      2 C2          -1.4330     0.5240    -0.2110 c6         1 GL2       0.149300
      3 O2          -2.3710     0.0700     0.7240 oh         1 GL2      -0.711000
      4 C3          -1.4990    -0.2220    -1.5340 c6         1 GL2       0.133300
      5 O3          -2.7430     0.0960    -2.1100 oh         1 GL2      -0.668000
      6 C4          -0.3350     0.2040    -2.4180 c6         1 GL2       0.107300
      7 O4          -0.4040    -0.5500    -3.6060 oh         1 GL2      -0.714000
      8 C5           0.9850    -0.0460    -1.6820 c6         1 GL2       0.150300
      9 C6           2.1680     0.4890    -2.4580 c3         1 GL2       0.170600
     10 O6           3.3550     0.1460    -1.7860 oh         1 GL2      -0.698000
     11 O5           0.9890     0.6250    -0.4240 os         1 GL2      -0.436000
     12 N2           0.0670     1.2700     1.5660 ns         1 GL2      -0.495900
     13 C8           0.1640     0.6450     2.7590 c          1 GL2       0.612000
     14 O8           0.2060     1.1250     3.8650 o          1 GL2      -0.545000
     15 N1           0.2220    -0.7280     2.4850 n          1 GL2      -0.268800
     16 C7           0.0840    -0.9930     1.1580 c          1 GL2       0.586000
     17 O7           0.1040    -2.0740     0.6300 o          1 GL2      -0.472000
     18 N3           0.3820    -1.7130     3.4290 n8         1 GL2      -0.712200
     19 H2          -1.5690     1.5970    -0.4270 h1         1 GL2       0.053700
     20 HO2         -3.2520     0.1590     0.3470 ho         1 GL2       0.533000
     21 H3          -1.4210    -1.3020    -1.3510 h1         1 GL2       0.083700
     22 HO3         -2.8770    -0.4750    -2.8730 ho         1 GL2       0.468000
     23 H4          -0.4300     1.2800    -2.6250 h1         1 GL2       0.051700
     24 HO4         -0.0800    -0.0180    -4.3370 ho         1 GL2       0.512000
     25 H5           1.1130    -1.1270    -1.5430 h1         1 GL2       0.092700
     26 H61          2.1360     0.0550    -3.4640 h1         1 GL2       0.026200
     27 H62          2.0600     1.5770    -2.5710 h1         1 GL2       0.026200
     28 HO6          4.0950     0.3930    -2.3470 ho         1 GL2       0.506000
     29 HN2         -0.1530     2.2530     1.5030 hn         1 GL2       0.349500
     30 HN31         1.2540    -1.5720     3.9240 hn         1 GL2       0.418000
     31 HN32        -0.3780    -1.6690     4.0970 hn         1 GL2       0.418000
@<TRIPOS>BOND
     1     1     2 1   
     2     1    11 1   
     3     1    12 1   
     4     1    16 1   
     5     2     3 1   
     6     2     4 1   
     7     2    19 1   
     8     3    20 1   
     9     4     5 1   
    10     4     6 1   
    11     4    21 1   
    12     5    22 1   
    13     6     7 1   
    14     6     8 1   
    15     6    23 1   
    16     7    24 1   
    17     8     9 1   
    18     8    11 1   
    19     8    25 1   
    20     9    10 1   
    21     9    26 1   
    22     9    27 1   
    23    10    28 1   
    24    12    13 1   
    25    12    29 1   
    26    13    14 2   
    27    13    15 1   
    28    15    16 1   
    29    15    18 1   
    30    16    17 2   
    31    18    30 1   
    32    18    31 1   
@<TRIPOS>SUBSTRUCTURE
     1 GL2         1 TEMP              0 ****  ****    0 ROOT
