@<TRIPOS>MOLECULE
GL2
   31    32     1     0     0
SMALL
No Charge or Current Charge


@<TRIPOS>ATOM
      1 C1          -0.1060     0.3730     0.5140 c5         1 GL2       0.273400
      2 C2          -1.4910     0.5850    -0.1850 c6         1 GL2       0.149300
      3 O2          -2.6050     0.2380     0.6620 oh         1 GL2      -0.711000
      4 C3          -1.5660    -0.2370    -1.5000 c6         1 GL2       0.133300
      5 O3          -2.8270    -0.0160    -2.1580 oh         1 GL2      -0.668000
      6 C4          -0.3970     0.1630    -2.4400 c6         1 GL2       0.107300
      7 O4          -0.4800    -0.6000    -3.6630 oh         1 GL2      -0.714000
      8 C5           0.9690    -0.0440    -1.7070 c6         1 GL2       0.150300
      9 C6           2.1930     0.4670    -2.5370 c3         1 GL2       0.170600
     10 O6           3.4510     0.2980    -1.8540 oh         1 GL2      -0.698000
     11 O5           0.9860     0.6320    -0.4160 os         1 GL2      -0.436000
     12 N2           0.0930     1.2750     1.6520 ns         1 GL2      -0.495900
     13 C8           0.2280     0.5990     2.8220 c          1 GL2       0.612000
     14 O8           0.3610     1.1170     3.9180 o          1 GL2      -0.545000
     15 N1           0.2120    -0.7700     2.5630 n          1 GL2      -0.268800
     16 C7           0.0400    -1.0460     1.1960 c          1 GL2       0.586000
     17 O7           0.0720    -2.1660     0.6910 o          1 GL2      -0.472000
     18 N3           0.3780    -1.7960     3.5940 n8         1 GL2      -0.712200
     19 H2          -1.5630     1.6490    -0.4570 h1         1 GL2       0.053700
     20 HO2         -3.3750     0.1620     0.0450 ho         1 GL2       0.533000
     21 H3          -1.4580    -1.3060    -1.2580 h1         1 GL2       0.083700
     22 HO3         -2.6840    -0.3190    -3.0860 ho         1 GL2       0.468000
     23 H4          -0.4990     1.2360    -2.6650 h1         1 GL2       0.051700
     24 HO4         -0.0560    -0.0700    -4.3800 ho         1 GL2       0.512000
     25 H5           1.1150    -1.1210    -1.5390 h1         1 GL2       0.092700
     26 H61          2.2160    -0.0760    -3.4920 h1         1 GL2       0.026200
     27 H62          2.0310     1.5280    -2.7680 h1         1 GL2       0.026200
     28 HO6          4.1430     0.7150    -2.4190 ho         1 GL2       0.506000
     29 HN2          0.0770     2.2860     1.6440 hn         1 GL2       0.349500
     30 HN31         1.2720    -1.6630     4.0880 hn         1 GL2       0.418000
     31 HN32        -0.3520    -1.6990     4.3130 hn         1 GL2       0.418000
@<TRIPOS>BOND
     1     1     2 1   
     2     1    11 1   
     3     1    12 1   
     4     1    16 1   
     5     2     3 1   
     6     2     4 1   
     7     2    19 1   
     8     3    20 1   
     9     4     5 1   
    10     4     6 1   
    11     4    21 1   
    12     5    22 1   
    13     6     7 1   
    14     6     8 1   
    15     6    23 1   
    16     7    24 1   
    17     8     9 1   
    18     8    11 1   
    19     8    25 1   
    20     9    10 1   
    21     9    26 1   
    22     9    27 1   
    23    10    28 1   
    24    12    13 1   
    25    12    29 1   
    26    13    14 2   
    27    13    15 1   
    28    15    16 1   
    29    15    18 1   
    30    16    17 2   
    31    18    30 1   
    32    18    31 1   
@<TRIPOS>SUBSTRUCTURE
     1 GL2         1 TEMP              0 ****  ****    0 ROOT
