@<TRIPOS>MOLECULE
GL3
   10     9     1     0     0
SMALL
bcc


@<TRIPOS>ATOM
      1 CA          32.3760    84.6050    58.8510 c3         1 GL3       0.062800
      2 N           31.5820    85.4540    59.7030 n8         1 GL3      -0.873800
      3 C           32.2470    83.1470    59.2350 c          1 GL3       0.636700
      4 O           31.5450    82.7180    60.1040 o          1 GL3      -0.472100
      5 S           33.2960    82.1060    58.2240 sh         1 GL3      -0.429400
      6 HA1         32.0220    84.6930    57.8200 h1         1 GL3       0.063200
      7 HA2         33.4490    84.8420    58.8170 h1         1 GL3       0.063200
      8 H           31.5250    86.3750    59.2900 hn         1 GL3       0.351300
      9 H2          32.0360    85.5720    60.5990 hn         1 GL3       0.351300
     10 HS          32.9250    80.9430    58.7730 hs         1 GL3       0.247800
@<TRIPOS>BOND
     1     1     2 1   
     2     1     3 1   
     3     1     6 1   
     4     1     7 1   
     5     2     8 1   
     6     2     9 1   
     7     3     4 2   
     8     3     5 1   
     9     5    10 1   
@<TRIPOS>SUBSTRUCTURE
     1 GL3         1 TEMP              0 ****  ****    0 ROOT
