@<TRIPOS>MOLECULE
GL3
   10     9     1     0     0
SMALL
No Charge or Current Charge


@<TRIPOS>ATOM
      1 CA          32.3690    84.6030    58.8360 c3         1 GL3       0.062800
      2 N           31.4990    85.5530    59.6170 n8         1 GL3      -0.873800
      3 C           32.3150    83.0910    59.2220 c          1 GL3       0.636700
      4 O           31.8120    82.6540    60.2500 o          1 GL3      -0.472100
      5 S           33.1430    81.9970    58.0430 sh         1 GL3      -0.429400
      6 HA1         32.0980    84.6750    57.7740 h1         1 GL3       0.063200
      7 HA2         33.4170    84.9190    58.9290 h1         1 GL3       0.063200
      8 H           31.6890    86.5190    59.3230 hn         1 GL3       0.351300
      9 H2          31.7670    85.5310    60.6090 hn         1 GL3       0.351300
     10 HS          32.8940    80.9130    58.8140 hs         1 GL3       0.247800
@<TRIPOS>BOND
     1     1     2 1   
     2     1     3 1   
     3     1     6 1   
     4     1     7 1   
     5     2     8 1   
     6     2     9 1   
     7     3     4 2   
     8     3     5 1   
     9     5    10 1   
@<TRIPOS>SUBSTRUCTURE
     1 GL3         1 TEMP              0 ****  ****    0 ROOT
