@<TRIPOS>MOLECULE
GL4
   29    30     1     0     0
SMALL
No Charge or Current Charge


@<TRIPOS>ATOM
      1 C1          -0.0880    -0.1790    -0.4770 c5         1 GL4       0.255400
      2 C2          -1.4450    -0.5610     0.2040 c6         1 GL4       0.156300
      3 O2          -2.5940    -0.2020    -0.5910 oh         1 GL4      -0.710000
      4 C3          -1.5540     0.1120     1.5990 c6         1 GL4       0.132300
      5 O3          -2.7880    -0.2590     2.2400 oh         1 GL4      -0.666000
      6 C4          -0.3470    -0.3070     2.4810 c6         1 GL4       0.108300
      7 O4          -0.4620     0.3150     3.7800 oh         1 GL4      -0.713000
      8 C5           0.9920     0.0680     1.7660 c6         1 GL4       0.150300
      9 C6           2.2590    -0.4450     2.5270 c3         1 GL4       0.170600
     10 O6           3.4930    -0.1190     1.8580 oh         1 GL4      -0.700000
     11 O5           1.0340    -0.4620     0.4090 os         1 GL4      -0.436000
     12 N2           0.1510    -0.9200    -1.7300 ns         1 GL4      -0.433900
     13 C8           0.2120    -0.1020    -2.8130 cs         1 GL4       0.464400
     14 S8           0.4470    -0.5530    -4.3970 s          1 GL4      -0.538400
     15 N1           0.1100     1.1420    -2.3360 ns         1 GL4      -0.417500
     16 C7          -0.0440     1.3070    -1.0030 c          1 GL4       0.556000
     17 O7          -0.0540     2.3810    -0.4160 o          1 GL4      -0.482000
     18 H2          -1.4400    -1.6500     0.3600 h1         1 GL4       0.056700
     19 HO2         -3.3550    -0.2390     0.0400 ho         1 GL4       0.536000
     20 H3          -1.5180     1.2050     1.4700 h1         1 GL4       0.081700
     21 HO3         -2.6530    -0.0440     3.1930 ho         1 GL4       0.469000
     22 H4          -0.3740    -1.4020     2.5920 h1         1 GL4       0.052700
     23 HO4          0.0020    -0.2600     4.4350 ho         1 GL4       0.514000
     24 H5           1.0640     1.1650     1.7130 h1         1 GL4       0.092700
     25 H61          2.1710    -1.5340     2.6430 h1         1 GL4       0.027700
     26 H62          2.2590    -0.0080     3.5340 h1         1 GL4       0.027700
     27 HO6          4.2200    -0.5470     2.3690 ho         1 GL4       0.508000
     28 HN2          0.2270    -1.9250    -1.8350 hn         1 GL4       0.366500
     29 HN1          0.1760     1.9430    -2.9470 hn         1 GL4       0.372500
@<TRIPOS>BOND
     1     1     2 1   
     2     1    11 1   
     3     1    12 1   
     4     1    16 1   
     5     2     3 1   
     6     2     4 1   
     7     2    18 1   
     8     3    19 1   
     9     4     5 1   
    10     4     6 1   
    11     4    20 1   
    12     5    21 1   
    13     6     7 1   
    14     6     8 1   
    15     6    22 1   
    16     7    23 1   
    17     8     9 1   
    18     8    11 1   
    19     8    24 1   
    20     9    10 1   
    21     9    25 1   
    22     9    26 1   
    23    10    27 1   
    24    12    13 1   
    25    12    28 1   
    26    13    14 2   
    27    13    15 1   
    28    15    16 1   
    29    15    29 1   
    30    16    17 2   
@<TRIPOS>SUBSTRUCTURE
     1 GL4         1 TEMP              0 ****  ****    0 ROOT
