@<TRIPOS>MOLECULE
GL4
   29    30     1     0     0
SMALL
abcg2


@<TRIPOS>ATOM
      1 C1          -0.0650    -0.1790    -0.4010 c5         1 GL4       0.255400
      2 C2          -1.4080    -0.4960     0.2610 c6         1 GL4       0.156300
      3 O2          -2.3880    -0.0010    -0.6070 oh         1 GL4      -0.710000
      4 C3          -1.4930     0.0910     1.6610 c6         1 GL4       0.132300
      5 O3          -2.7000    -0.3750     2.2130 oh         1 GL4      -0.666000
      6 C4          -0.2840    -0.3490     2.4750 c6         1 GL4       0.108300
      7 O4          -0.3730     0.2680     3.7380 oh         1 GL4      -0.713000
      8 C5           1.0020     0.0670     1.7540 c6         1 GL4       0.150300
      9 C6           2.2340    -0.4760     2.4430 c3         1 GL4       0.170600
     10 O6           3.3790     0.0490     1.8180 oh         1 GL4      -0.700000
     11 O5           1.0220    -0.4530     0.4250 os         1 GL4      -0.436000
     12 N2           0.1010    -0.9240    -1.6150 ns         1 GL4      -0.433900
     13 C8           0.1980    -0.1680    -2.7110 cs         1 GL4       0.464400
     14 S8           0.3430    -0.6700    -4.2710 s          1 GL4      -0.538400
     15 N1           0.1560     1.1410    -2.3010 ns         1 GL4      -0.417500
     16 C7          -0.0160     1.2640    -0.9540 c          1 GL4       0.556000
     17 O7          -0.0800     2.2870    -0.3240 o          1 GL4      -0.482000
     18 H2          -1.4700    -1.5930     0.3550 h1         1 GL4       0.056700
     19 HO2         -3.2570    -0.2080    -0.2450 ho         1 GL4       0.536000
     20 H3          -1.4930     1.1880     1.6000 h1         1 GL4       0.081700
     21 HO3         -2.8600     0.1000     3.0350 ho         1 GL4       0.469000
     22 H4          -0.3030    -1.4450     2.5650 h1         1 GL4       0.052700
     23 HO4         -0.0240    -0.3280     4.4060 ho         1 GL4       0.514000
     24 H5           1.0600     1.1630     1.7400 h1         1 GL4       0.092700
     25 H61          2.2100    -1.5740     2.4050 h1         1 GL4       0.027700
     26 H62          2.1850    -0.1900     3.5000 h1         1 GL4       0.027700
     27 HO6          4.1490    -0.2560     2.3050 ho         1 GL4       0.508000
     28 HN2          0.0310    -1.9290    -1.6630 hn         1 GL4       0.366500
     29 HN1          0.2460     1.9170    -2.9420 hn         1 GL4       0.372500
@<TRIPOS>BOND
     1     1     2 1   
     2     1    11 1   
     3     1    12 1   
     4     1    16 1   
     5     2     3 1   
     6     2     4 1   
     7     2    18 1   
     8     3    19 1   
     9     4     5 1   
    10     4     6 1   
    11     4    20 1   
    12     5    21 1   
    13     6     7 1   
    14     6     8 1   
    15     6    22 1   
    16     7    23 1   
    17     8     9 1   
    18     8    11 1   
    19     8    24 1   
    20     9    10 1   
    21     9    25 1   
    22     9    26 1   
    23    10    27 1   
    24    12    13 1   
    25    12    28 1   
    26    13    14 2   
    27    13    15 1   
    28    15    16 1   
    29    15    29 1   
    30    16    17 2   
@<TRIPOS>SUBSTRUCTURE
     1 GL4         1 TEMP              0 ****  ****    0 ROOT
