@<TRIPOS>MOLECULE
GL5
   30    31     1     0     0
SMALL
No Charge or Current Charge


@<TRIPOS>ATOM
      1 C1          -0.0270    -0.4680    -0.5360 c5         1 GL5       0.281400
      2 C2          -1.4340    -0.6190     0.1340 c6         1 GL5       0.147300
      3 O2          -2.5170    -0.2960    -0.7630 oh         1 GL5      -0.714000
      4 C3          -1.5280     0.2740     1.4020 c6         1 GL5       0.132300
      5 O3          -2.8100     0.1100     2.0350 oh         1 GL5      -0.668000
      6 C4          -0.3920    -0.0960     2.3930 c6         1 GL5       0.107300
      7 O4          -0.4930     0.7330     3.5710 oh         1 GL5      -0.714000
      8 C5           0.9970     0.0470     1.6880 c6         1 GL5       0.149300
      9 C6           2.1890    -0.4400     2.5760 c3         1 GL5       0.171600
     10 O6           3.4660    -0.3310     1.9190 oh         1 GL5      -0.697000
     11 O5           1.0350    -0.6960     0.4350 os         1 GL5      -0.432000
     12 N2           0.1840    -1.4390    -1.6260 ns         1 GL5      -0.500900
     13 C8           0.3630    -0.8270    -2.8290 c          1 GL5       0.641000
     14 O8           0.5160    -1.3910    -3.9000 o          1 GL5      -0.511000
     15 N1           0.3540     0.5320    -2.6020 n          1 GL5      -0.260900
     16 C7           0.1630     0.9160    -1.2820 c          1 GL5       0.567000
     17 O7           0.2110     2.0650    -0.8530 o          1 GL5      -0.481000
     18 O9           0.5920     1.5000    -3.6640 oh         1 GL5      -0.377100
     19 H2          -1.5330    -1.6660     0.4590 h1         1 GL5       0.055700
     20 HO2         -3.3020    -0.1750    -0.1730 ho         1 GL5       0.535000
     21 H3          -1.3930     1.3260     1.1070 h1         1 GL5       0.081700
     22 HO3         -2.6870     0.4620     2.9480 ho         1 GL5       0.469000
     23 H4          -0.5200    -1.1540     2.6720 h1         1 GL5       0.052700
     24 HO4         -0.1000     0.2340     4.3270 ho         1 GL5       0.513000
     25 H5           1.1670     1.1110     1.4670 h1         1 GL5       0.092700
     26 H61          2.0000    -1.4840     2.8590 h1         1 GL5       0.026200
     27 H62          2.1980     0.1530     3.5000 h1         1 GL5       0.026200
     28 HO6          4.1360    -0.7280     2.5230 ho         1 GL5       0.506000
     29 HN2          0.1540    -2.4470    -1.5660 hn         1 GL5       0.351500
     30 HO9         -0.2960     1.7060    -4.0350 ho         1 GL5       0.449000
@<TRIPOS>BOND
     1     1     2 1   
     2     1    11 1   
     3     1    12 1   
     4     1    16 1   
     5     2     3 1   
     6     2     4 1   
     7     2    19 1   
     8     3    20 1   
     9     4     5 1   
    10     4     6 1   
    11     4    21 1   
    12     5    22 1   
    13     6     7 1   
    14     6     8 1   
    15     6    23 1   
    16     7    24 1   
    17     8     9 1   
    18     8    11 1   
    19     8    25 1   
    20     9    10 1   
    21     9    26 1   
    22     9    27 1   
    23    10    28 1   
    24    12    13 1   
    25    12    29 1   
    26    13    14 2   
    27    13    15 1   
    28    15    16 1   
    29    15    18 1   
    30    16    17 2   
    31    18    30 1   
@<TRIPOS>SUBSTRUCTURE
     1 GL5         1 TEMP              0 ****  ****    0 ROOT
