@<TRIPOS>MOLECULE
GL5
   30    31     1     0     0
SMALL
abcg2


@<TRIPOS>ATOM
      1 C1           0.0070    -0.4630    -0.4690 c5         1 GL5       0.281400
      2 C2          -1.3820    -0.5550     0.1690 c6         1 GL5       0.147300
      3 O2          -2.2860    -0.1270    -0.8120 oh         1 GL5      -0.714000
      4 C3          -1.4670     0.2540     1.4530 c6         1 GL5       0.132300
      5 O3          -2.7310    -0.0140     2.0090 oh         1 GL5      -0.668000
      6 C4          -0.3330    -0.1480     2.3850 c6         1 GL5       0.107300
      7 O4          -0.4190     0.6620     3.5340 oh         1 GL5      -0.714000
      8 C5           1.0070     0.0510     1.6720 c6         1 GL5       0.149300
      9 C6           2.1640    -0.4620     2.5020 c3         1 GL5       0.171600
     10 O6           3.3690    -0.1750     1.8370 oh         1 GL5      -0.697000
     11 O5           1.0350    -0.6770     0.4470 os         1 GL5      -0.432000
     12 N2           0.1510    -1.4190    -1.5260 ns         1 GL5      -0.500900
     13 C8           0.2820    -0.8690    -2.7520 c          1 GL5       0.641000
     14 O8           0.3560    -1.4030    -3.8270 o          1 GL5      -0.511000
     15 N1           0.3190     0.5140    -2.5360 n          1 GL5      -0.260900
     16 C7           0.1890     0.8670    -1.2330 c          1 GL5       0.567000
     17 O7           0.2360     1.9800    -0.7760 o          1 GL5      -0.481000
     18 O9           0.6240     1.3780    -3.5200 oh         1 GL5      -0.377100
     19 H2          -1.5450    -1.6130     0.4300 h1         1 GL5       0.055700
     20 HO2         -3.1780    -0.1770    -0.4520 ho         1 GL5       0.535000
     21 H3          -1.3640     1.3240     1.2210 h1         1 GL5       0.081700
     22 HO3         -2.8640     0.5790     2.7550 ho         1 GL5       0.469000
     23 H4          -0.4500    -1.2110     2.6390 h1         1 GL5       0.052700
     24 HO4         -0.1330     0.1560     4.2990 ho         1 GL5       0.513000
     25 H5           1.1530     1.1230     1.4880 h1         1 GL5       0.092700
     26 H61          2.0340    -1.5410     2.6680 h1         1 GL5       0.026200
     27 H62          2.1190     0.0250     3.4820 h1         1 GL5       0.026200
     28 HO6          4.0940    -0.4120     2.4220 ho         1 GL5       0.506000
     29 HN2         -0.0830    -2.3950    -1.4110 hn         1 GL5       0.351500
     30 HO9         -0.2150     1.6600    -3.9120 ho         1 GL5       0.449000
@<TRIPOS>BOND
     1     1     2 1   
     2     1    11 1   
     3     1    12 1   
     4     1    16 1   
     5     2     3 1   
     6     2     4 1   
     7     2    19 1   
     8     3    20 1   
     9     4     5 1   
    10     4     6 1   
    11     4    21 1   
    12     5    22 1   
    13     6     7 1   
    14     6     8 1   
    15     6    23 1   
    16     7    24 1   
    17     8     9 1   
    18     8    11 1   
    19     8    25 1   
    20     9    10 1   
    21     9    26 1   
    22     9    27 1   
    23    10    28 1   
    24    12    13 1   
    25    12    29 1   
    26    13    14 2   
    27    13    15 1   
    28    15    16 1   
    29    15    18 1   
    30    16    17 2   
    31    18    30 1   
@<TRIPOS>SUBSTRUCTURE
     1 GL5         1 TEMP              0 ****  ****    0 ROOT
