@<TRIPOS>MOLECULE
GL6
   36    36     1     0     0
SMALL
abcg2


@<TRIPOS>ATOM
      1 P           -2.4580    -0.4080    -0.0990 p5         1 GL6       1.353100
      2 O11         -3.6160    -1.0830    -0.7290 o          1 GL6      -0.587000
      3 O13         -2.7830     0.9430     0.6930 os         1 GL6      -0.584900
      4 O12         -1.7740    -1.1510     1.1370 os         1 GL6      -0.584900
      5 O2          -0.2970     2.5590    -0.6150 oh         1 GL6      -0.714000
      6 O3           2.1380     2.6090     0.9960 oh         1 GL6      -0.666000
      7 O4           3.9170     0.4670     0.4780 oh         1 GL6      -0.718000
      8 O5           0.7450    -0.8970    -0.5870 os         1 GL6      -0.486000
      9 N1          -1.3060    -0.0660    -1.2470 n7         1 GL6      -1.001500
     10 C1           0.0730     0.2520    -1.0530 c6         1 GL6       0.479500
     11 C15         -1.4560    -2.5420     1.0410 c3         1 GL6       0.191400
     12 C16         -3.4760     1.9860     0.0060 c3         1 GL6       0.191400
     13 C2           0.3220     1.4130    -0.0890 c6         1 GL6       0.105300
     14 C3           1.8310     1.6170     0.0410 c6         1 GL6       0.100300
     15 C4           2.5180     0.3270     0.4710 c6         1 GL6       0.139300
     16 C5           2.1480    -0.7840    -0.5080 c6         1 GL6       0.186300
     17 C6           2.6860    -2.1290    -0.0660 c3         1 GL6       0.169600
     18 HO3          2.1330     3.4690     0.5680 ho         1 GL6       0.455000
     19 HO4          4.1360     1.2140     1.0460 ho         1 GL6       0.524000
     20 HO6          2.7480    -3.9280    -0.7680 ho         1 GL6       0.505000
     21 HN1         -1.5260    -0.4290    -2.1630 hn         1 GL6       0.498000
     22 H1           0.4670     0.5370    -2.0390 h2         1 GL6       0.052700
     23 H151        -0.9810    -2.8200     1.9780 h1         1 GL6       0.044533
     24 H152        -2.3570    -3.1410     0.9090 h1         1 GL6       0.044533
     25 H153        -0.7610    -2.7390     0.2260 h1         1 GL6       0.044533
     26 H161        -2.9830     2.2450    -0.9300 h1         1 GL6       0.044533
     27 H162        -4.5090     1.7020    -0.1920 h1         1 GL6       0.044533
     28 H163        -3.4660     2.8560     0.6590 h1         1 GL6       0.044533
     29 H2          -0.0790     1.1570     0.9010 h1         1 GL6       0.071700
     30 H3           2.2250     1.8960    -0.9490 h1         1 GL6       0.054700
     31 H4           2.1450     0.0460     1.4700 h1         1 GL6       0.059700
     32 H5           2.5670    -0.5330    -1.4980 h1         1 GL6       0.060700
     33 H61          3.7700    -2.0450     0.0580 h1         1 GL6       0.037200
     34 H62          2.2630    -2.3680     0.9200 h1         1 GL6       0.037200
     35 HO2         -0.4460     3.1860     0.0980 ho         1 GL6       0.514000
     36 O6           2.3440    -3.0960    -1.0290 oh         1 GL6      -0.713000
@<TRIPOS>BOND
     1     1     2 2   
     2     1     3 1   
     3     1     4 1   
     4     1     9 1   
     5     3    12 1   
     6     4    11 1   
     7     5    13 1   
     8     5    35 1   
     9     6    14 1   
    10     6    18 1   
    11     7    15 1   
    12     7    19 1   
    13     8    10 1   
    14     8    16 1   
    15     9    10 1   
    16     9    21 1   
    17    10    13 1   
    18    10    22 1   
    19    11    23 1   
    20    11    24 1   
    21    11    25 1   
    22    12    26 1   
    23    12    27 1   
    24    12    28 1   
    25    13    14 1   
    26    13    29 1   
    27    14    15 1   
    28    14    30 1   
    29    15    16 1   
    30    15    31 1   
    31    16    17 1   
    32    16    32 1   
    33    17    33 1   
    34    17    34 1   
    35    17    36 1   
    36    20    36 1   
@<TRIPOS>SUBSTRUCTURE
     1 GL6         1 TEMP              0 ****  ****    0 ROOT
