@<TRIPOS>MOLECULE
GL6
   36    36     1     0     0
SMALL
No Charge or Current Charge


@<TRIPOS>ATOM
      1 P           -2.2200    -0.2480    -0.7450 p5         1 GL6       1.353100
      2 O11         -3.2970    -0.9740    -1.4590 o          1 GL6      -0.587000
      3 O13         -2.5160     1.2640    -0.2780 os         1 GL6      -0.584900
      4 O12         -1.5380    -0.9030     0.5510 os         1 GL6      -0.584900
      5 O2          -0.1060     2.5770    -0.2510 oh         1 GL6      -0.714000
      6 O3           2.2870     2.3540     1.3590 oh         1 GL6      -0.666000
      7 O4           4.1450     0.2760     0.6830 oh         1 GL6      -0.718000
      8 O5           1.0040    -0.9250    -0.9980 os         1 GL6      -0.486000
      9 N1          -0.9570     0.0950    -1.7170 n7         1 GL6      -1.001500
     10 C1           0.4030     0.3390    -1.2750 c6         1 GL6       0.479500
     11 C15         -2.3560    -1.4380     1.6000 c3         1 GL6       0.191400
     12 C16         -3.7430     1.5670     0.4000 c3         1 GL6       0.191400
     13 C2           0.5610     1.3090    -0.0440 c6         1 GL6       0.105300
     14 C3           2.0770     1.4960     0.2240 c6         1 GL6       0.100300
     15 C4           2.7350     0.1010     0.4570 c6         1 GL6       0.139300
     16 C5           2.4380    -0.8410    -0.7610 c6         1 GL6       0.186300
     17 C6           2.9890    -2.2890    -0.5410 c3         1 GL6       0.169600
     18 HO3          1.5920     3.0490     1.2830 ho         1 GL6       0.455000
     19 HO4          4.2080     1.1000     1.2270 ho         1 GL6       0.524000
     20 HO6          3.0240    -4.0790    -1.3680 ho         1 GL6       0.505000
     21 HN1         -0.9490    -0.7300    -2.3070 hn         1 GL6       0.498000
     22 H1           0.9280     0.7870    -2.1330 h2         1 GL6       0.052700
     23 H151        -2.6400    -0.6510     2.3100 h1         1 GL6       0.044533
     24 H152        -3.2710    -1.8970     1.2040 h1         1 GL6       0.044533
     25 H153        -1.8050    -2.2080     2.1540 h1         1 GL6       0.044533
     26 H161        -4.6010     1.0900    -0.0930 h1         1 GL6       0.044533
     27 H162        -3.7090     1.2280     1.4430 h1         1 GL6       0.044533
     28 H163        -3.9170     2.6500     0.4040 h1         1 GL6       0.044533
     29 H2           0.1370     0.8180     0.8420 h1         1 GL6       0.071700
     30 H3           2.5280     1.9490    -0.6730 h1         1 GL6       0.054700
     31 H4           2.2720    -0.3490     1.3490 h1         1 GL6       0.059700
     32 H5           2.9200    -0.4290    -1.6600 h1         1 GL6       0.060700
     33 H61          4.0750    -2.2240    -0.3870 h1         1 GL6       0.037200
     34 H62          2.5530    -2.6810     0.3880 h1         1 GL6       0.037200
     35 HO2         -1.0550     2.3220    -0.4150 ho         1 GL6       0.514000
     36 O6           2.7050    -3.1860    -1.6370 oh         1 GL6      -0.713000
@<TRIPOS>BOND
     1     1     2 2   
     2     1     3 1   
     3     1     4 1   
     4     1     9 1   
     5     3    12 1   
     6     4    11 1   
     7     5    13 1   
     8     5    35 1   
     9     6    14 1   
    10     6    18 1   
    11     7    15 1   
    12     7    19 1   
    13     8    10 1   
    14     8    16 1   
    15     9    10 1   
    16     9    21 1   
    17    10    13 1   
    18    10    22 1   
    19    11    23 1   
    20    11    24 1   
    21    11    25 1   
    22    12    26 1   
    23    12    27 1   
    24    12    28 1   
    25    13    14 1   
    26    13    29 1   
    27    14    15 1   
    28    14    30 1   
    29    15    16 1   
    30    15    31 1   
    31    16    17 1   
    32    16    32 1   
    33    17    33 1   
    34    17    34 1   
    35    17    36 1   
    36    20    36 1   
@<TRIPOS>SUBSTRUCTURE
     1 GL6         1 TEMP              0 ****  ****    0 ROOT
