@<TRIPOS>MOLECULE
GL7
   32    33     1     0     0
SMALL
No Charge or Current Charge


@<TRIPOS>ATOM
      1 C1          -0.0490     0.3800     0.5250 c5         1 GL7       0.274400
      2 C2          -1.4470     0.6070    -0.1420 c6         1 GL7       0.148300
      3 O2          -2.5470     0.2810     0.7320 oh         1 GL7      -0.711000
      4 C3          -1.5620    -0.2230    -1.4490 c6         1 GL7       0.132300
      5 O3          -2.8360     0.0080    -2.0800 oh         1 GL7      -0.668000
      6 C4          -0.4110     0.1580    -2.4180 c6         1 GL7       0.106300
      7 O4          -0.5300    -0.6120    -3.6350 oh         1 GL7      -0.715000
      8 C5           0.9700    -0.0610    -1.7160 c6         1 GL7       0.150300
      9 C6           2.1800     0.4310    -2.5770 c3         1 GL7       0.170600
     10 O6           3.4520     0.2520    -1.9230 oh         1 GL7      -0.698000
     11 O5           1.0250     0.6220    -0.4290 os         1 GL7      -0.435000
     12 N2           0.1890     1.2780     1.6630 ns         1 GL7      -0.499900
     13 C8           0.3440     0.5950     2.8270 c          1 GL7       0.634000
     14 O8           0.5170     1.1000     3.9220 o          1 GL7      -0.537000
     15 N1           0.2930    -0.7450     2.5430 n          1 GL7      -0.374400
     16 C7           0.0970    -1.0400     1.2070 c          1 GL7       0.560000
     17 O7           0.1190    -2.1650     0.7170 o          1 GL7      -0.505000
     18 C9           0.4860    -1.7860     3.5710 c3         1 GL7       0.104300
     19 H2          -1.5100     1.6710    -0.4190 h1         1 GL7       0.052700
     20 HO2         -3.3290     0.2050     0.1320 ho         1 GL7       0.532000
     21 H3          -1.4600    -1.2910    -1.2020 h1         1 GL7       0.082700
     22 HO3         -2.7160    -0.3010    -3.0090 ho         1 GL7       0.467000
     23 H4          -0.5050     1.2310    -2.6480 h1         1 GL7       0.050700
     24 HO4         -0.1150    -0.0920    -4.3640 ho         1 GL7       0.512000
     25 H5           1.1070    -1.1380    -1.5440 h1         1 GL7       0.091700
     26 H61          2.1750    -0.1170    -3.5290 h1         1 GL7       0.025700
     27 H62          2.0250     1.4930    -2.8110 h1         1 GL7       0.025700
     28 HO6          4.1350     0.6580    -2.5060 ho         1 GL7       0.505000
     29 HN2          0.1930     2.2880     1.6580 hn         1 GL7       0.349500
     30 H91          0.1140    -1.4350     4.5420 h1         1 GL7       0.054367
     31 H92         -0.0620    -2.6970     3.2970 h1         1 GL7       0.054367
     32 H93          1.5540    -2.0230     3.6600 h1         1 GL7       0.054367
@<TRIPOS>BOND
     1     1     2 1   
     2     1    11 1   
     3     1    12 1   
     4     1    16 1   
     5     2     3 1   
     6     2     4 1   
     7     2    19 1   
     8     3    20 1   
     9     4     5 1   
    10     4     6 1   
    11     4    21 1   
    12     5    22 1   
    13     6     7 1   
    14     6     8 1   
    15     6    23 1   
    16     7    24 1   
    17     8     9 1   
    18     8    11 1   
    19     8    25 1   
    20     9    10 1   
    21     9    26 1   
    22     9    27 1   
    23    10    28 1   
    24    12    13 1   
    25    12    29 1   
    26    13    14 2   
    27    13    15 1   
    28    15    16 1   
    29    15    18 1   
    30    16    17 2   
    31    18    30 1   
    32    18    31 1   
    33    18    32 1   
@<TRIPOS>SUBSTRUCTURE
     1 GL7         1 TEMP              0 ****  ****    0 ROOT
