@<TRIPOS>MOLECULE
GL7
   32    33     1     0     0
SMALL
bcc


@<TRIPOS>ATOM
      1 C1          -0.0100     0.3810     0.4600 c5         1 GL7       0.251200
      2 C2          -1.3930     0.5290    -0.1820 c6         1 GL7       0.125100
      3 O2          -2.3120     0.0800     0.7740 oh         1 GL7      -0.588800
      4 C3          -1.4860    -0.2220    -1.5000 c6         1 GL7       0.109100
      5 O3          -2.7410     0.0910    -2.0530 oh         1 GL7      -0.605800
      6 C4          -0.3400     0.2000    -2.4080 c6         1 GL7       0.083100
      7 O4          -0.4340    -0.5550    -3.5940 oh         1 GL7      -0.592800
      8 C5           0.9940    -0.0530    -1.6980 c6         1 GL7       0.127100
      9 C6           2.1630     0.4750    -2.5010 c3         1 GL7       0.147400
     10 O6           3.3620     0.1340    -1.8500 oh         1 GL7      -0.575800
     11 O5           1.0260     0.6220    -0.4440 os         1 GL7      -0.388600
     12 N2           0.1460     1.2710     1.5650 ns         1 GL7      -0.566900
     13 C8           0.2530     0.6410     2.7580 c          1 GL7       0.843500
     14 O8           0.3070     1.1380     3.8570 o          1 GL7      -0.612500
     15 N1           0.3030    -0.7280     2.4910 n          1 GL7      -0.508400
     16 C7           0.1470    -0.9810     1.1680 c          1 GL7       0.702500
     17 O7           0.1600    -2.0710     0.6480 o          1 GL7      -0.580500
     18 C9           0.4800    -1.7530     3.4920 c3         1 GL7       0.104300
     19 H2          -1.5330     1.6010    -0.4000 h1         1 GL7       0.052700
     20 HO2         -3.2020     0.1860     0.4210 ho         1 GL7       0.433000
     21 H3          -1.4030    -1.3020    -1.3130 h1         1 GL7       0.082700
     22 HO3         -2.8800    -0.4700    -2.8220 ho         1 GL7       0.428000
     23 H4          -0.4360     1.2750    -2.6140 h1         1 GL7       0.050700
     24 HO4         -0.1370    -0.0180    -4.3340 ho         1 GL7       0.413000
     25 H5           1.1200    -1.1340    -1.5590 h1         1 GL7       0.091700
     26 H61          2.1100     0.0360    -3.5040 h1         1 GL7       0.025700
     27 H62          2.0540     1.5630    -2.6170 h1         1 GL7       0.025700
     28 HO6          4.0910     0.3810    -2.4250 ho         1 GL7       0.406000
     29 HN2         -0.0860     2.2520     1.5130 hn         1 GL7       0.349500
     30 H91          0.5110    -1.2860     4.4710 h1         1 GL7       0.054367
     31 H92         -0.3500    -2.4560     3.4650 h1         1 GL7       0.054367
     32 H93          1.4110    -2.2930     3.3300 h1         1 GL7       0.054367
@<TRIPOS>BOND
     1     1     2 1   
     2     1    11 1   
     3     1    12 1   
     4     1    16 1   
     5     2     3 1   
     6     2     4 1   
     7     2    19 1   
     8     3    20 1   
     9     4     5 1   
    10     4     6 1   
    11     4    21 1   
    12     5    22 1   
    13     6     7 1   
    14     6     8 1   
    15     6    23 1   
    16     7    24 1   
    17     8     9 1   
    18     8    11 1   
    19     8    25 1   
    20     9    10 1   
    21     9    26 1   
    22     9    27 1   
    23    10    28 1   
    24    12    13 1   
    25    12    29 1   
    26    13    14 2   
    27    13    15 1   
    28    15    16 1   
    29    15    18 1   
    30    16    17 2   
    31    18    30 1   
    32    18    31 1   
    33    18    32 1   
@<TRIPOS>SUBSTRUCTURE
     1 GL7         1 TEMP              0 ****  ****    0 ROOT
