@<TRIPOS>MOLECULE
GL8
   76    81     1     0     0
SMALL
bcc


@<TRIPOS>ATOM
      1 C1          -6.2940    -1.6700    -1.2460 c2         1 GL8      -0.178200
      2 C2          -7.3920    -2.3810    -1.4720 c2         1 GL8      -0.153200
      3 C3          -8.4060    -2.7430    -0.4250 c6         1 GL8       0.182300
      4 C4          -7.8770    -2.4860     0.9750 c6         1 GL8      -0.072400
      5 C5          -7.0610    -1.2260     1.1110 c5         1 GL8       0.153100
      6 C6          -5.9070    -1.0990     0.0960 c5         1 GL8      -0.003500
      7 C7          -7.3600     2.2540     0.3120 ca         1 GL8       0.231100
      8 C8          -6.3720     3.0970    -0.2120 ca         1 GL8      -0.219000
      9 C9          -5.1470     2.5940    -0.6100 ca         1 GL8      -0.026000
     10 C10         -3.5420     0.8170    -0.9070 ce         1 GL8       0.440800
     11 C11         -3.4480    -1.6270    -0.3910 c3         1 GL8       0.006300
     12 C12         -4.5810    -1.6440     0.6150 c3         1 GL8      -0.072400
     13 C13         -7.0600     0.8880     0.3940 ca         1 GL8       0.088100
     14 C14         -5.8620     0.3900    -0.0410 ca         1 GL8      -0.079300
     15 C15         -4.8560     1.2230    -0.5270 ca         1 GL8      -0.255900
     16 C16         -8.9090     4.0070     0.6600 c3         1 GL8       0.110700
     17 C18         -0.5290    -0.2940    -0.2470 c3         1 GL8      -0.096400
     18 C19          0.8840    -0.3160    -0.8180 c3         1 GL8      -0.075400
     19 C20          1.9580    -0.2660     0.2600 c3         1 GL8      -0.073400
     20 C21          3.3660    -0.2000    -0.3180 c3         1 GL8      -0.074400
     21 C22          4.4510    -0.1740     0.7500 c3         1 GL8      -0.071400
     22 C23          5.8520    -0.0540     0.1630 c3         1 GL8      -0.097400
     23 C24          6.9140    -0.0290     1.2540 c3         1 GL8       0.112000
     24 C25          8.8520     1.3310     0.4490 c          1 GL8       0.729600
     25 C26         10.2000     1.0180    -0.0830 ca         1 GL8      -0.148600
     26 C27         11.2080     1.8570    -0.5070 ca         1 GL8      -0.061500
     27 C28         12.3850     1.2590    -0.9580 ca         1 GL8      -0.114000
     28 C29         12.5270    -0.1260    -0.9760 ca         1 GL8      -0.114000
     29 C30         11.4990    -0.9620    -0.5440 ca         1 GL8      -0.061500
     30 C31         10.3410    -0.3590    -0.1020 ca         1 GL8      -0.148600
     31 C32          9.0850    -0.9540     0.4150 c          1 GL8       0.729600
     32 O1          -7.8780    -0.0510     0.9000 os         1 GL8      -0.246900
     33 O2          -8.5560     2.6330     0.7420 os         1 GL8      -0.261900
     34 O3          -9.6050    -2.0100    -0.6120 oh         1 GL8      -0.571800
     35 O25          8.3430     2.4110     0.6160 o          1 GL8      -0.565000
     36 O32          8.8070    -2.1190     0.5500 o          1 GL8      -0.565000
     37 N1          -2.9430    -0.3290    -0.8620 nh         1 GL8      -0.136100
     38 N2           8.2580     0.1120     0.7310 n          1 GL8      -0.529400
     39 H1          -5.6380    -1.4360    -2.0790 ha         1 GL8       0.123000
     40 H2          -7.5980    -2.7150    -2.4840 ha         1 GL8       0.139000
     41 H3          -8.6120    -3.8180    -0.5100 h1         1 GL8       0.051700
     42 H4C1        -8.6980    -2.4880     1.6960 hc         1 GL8       0.077700
     43 H4C2        -7.2260    -3.3170     1.2590 hc         1 GL8       0.077700
     44 H5          -6.6520    -1.1590     2.1270 h1         1 GL8       0.067700
     45 H8          -6.5460     4.1600    -0.2940 ha         1 GL8       0.165000
     46 H9          -4.3960     3.2810    -0.9800 ha         1 GL8       0.146000
     47 H10         -2.9250     1.6160    -1.3030 h4         1 GL8       0.037800
     48 H111        -3.7020    -2.2050    -1.2820 h1         1 GL8       0.086700
     49 H112        -2.5940    -2.1290     0.0620 h1         1 GL8       0.086700
     50 H121        -4.6990    -2.6940     0.8940 hc         1 GL8       0.079700
     51 H122        -4.2920    -1.1060     1.5210 hc         1 GL8       0.079700
     52 H161        -8.2360     4.6300     1.2530 h1         1 GL8       0.062367
     53 H162        -8.9090     4.3570    -0.3740 h1         1 GL8       0.062367
     54 H163        -9.9150     4.0860     1.0620 h1         1 GL8       0.062367
     55 H171        -1.4600    -1.3430    -1.9010 h1         1 GL8       0.083700
     56 H172        -1.4200     0.4010    -2.0880 h1         1 GL8       0.083700
     57 H181        -0.6890     0.6350     0.3070 hc         1 GL8       0.058700
     58 H182        -0.6540    -1.1150     0.4640 hc         1 GL8       0.058700
     59 H191         1.0190    -1.2170    -1.4260 hc         1 GL8       0.048700
     60 H192         1.0100     0.5320    -1.4980 hc         1 GL8       0.048700
     61 H201         1.7920     0.6050     0.9030 hc         1 GL8       0.044200
     62 H202         1.8660    -1.1440     0.9080 hc         1 GL8       0.044200
     63 H211         3.5270    -1.0570    -0.9810 hc         1 GL8       0.043200
     64 H212         3.4560     0.6910    -0.9480 hc         1 GL8       0.043200
     65 H221         4.2730     0.6650     1.4310 hc         1 GL8       0.042200
     66 H222         4.3850    -1.0810     1.3610 hc         1 GL8       0.042200
     67 H231         6.0420    -0.8920    -0.5140 hc         1 GL8       0.053200
     68 H232         5.9220     0.8580    -0.4360 hc         1 GL8       0.053200
     69 H241         6.7360     0.7960     1.9430 h1         1 GL8       0.064700
     70 H242         6.8810    -0.9470     1.8420 h1         1 GL8       0.064700
     71 H28         13.2020     1.8790    -1.3000 ha         1 GL8       0.144000
     72 H29         13.4520    -0.5580    -1.3320 ha         1 GL8       0.144000
     73 H30         11.6110    -2.0380    -0.5580 ha         1 GL8       0.158000
     74 HA          -9.9910    -2.2780    -1.4520 ho         1 GL8       0.411000
     75 C17         -1.5590    -0.3990    -1.3620 c3         1 GL8      -0.008700
     76 H27         11.0980     2.9330    -0.4930 ha         1 GL8       0.158000
@<TRIPOS>BOND
     1     1     2 2   
     2     1     6 1   
     3     1    39 1   
     4     2     3 1   
     5     2    40 1   
     6     3     4 1   
     7     3    34 1   
     8     3    41 1   
     9     4     5 1   
    10     4    42 1   
    11     4    43 1   
    12     5     6 1   
    13     5    32 1   
    14     5    44 1   
    15     6    12 1   
    16     6    14 1   
    17     7     8 ar  
    18     7    13 ar  
    19     7    33 1   
    20     8     9 ar  
    21     8    45 1   
    22     9    15 ar  
    23     9    46 1   
    24    10    15 1   
    25    10    37 2   
    26    10    47 1   
    27    11    12 1   
    28    11    37 1   
    29    11    48 1   
    30    11    49 1   
    31    12    50 1   
    32    12    51 1   
    33    13    14 ar  
    34    13    32 1   
    35    14    15 ar  
    36    16    33 1   
    37    16    52 1   
    38    16    53 1   
    39    16    54 1   
    40    17    18 1   
    41    17    57 1   
    42    17    58 1   
    43    17    75 1   
    44    18    19 1   
    45    18    59 1   
    46    18    60 1   
    47    19    20 1   
    48    19    61 1   
    49    19    62 1   
    50    20    21 1   
    51    20    63 1   
    52    20    64 1   
    53    21    22 1   
    54    21    65 1   
    55    21    66 1   
    56    22    23 1   
    57    22    67 1   
    58    22    68 1   
    59    23    38 1   
    60    23    69 1   
    61    23    70 1   
    62    24    25 1   
    63    24    35 2   
    64    24    38 1   
    65    25    26 ar  
    66    25    30 ar  
    67    26    27 ar  
    68    26    76 1   
    69    27    28 ar  
    70    27    71 1   
    71    28    29 ar  
    72    28    72 1   
    73    29    30 ar  
    74    29    73 1   
    75    30    31 1   
    76    31    36 2   
    77    31    38 1   
    78    34    74 1   
    79    37    75 1   
    80    55    75 1   
    81    56    75 1   
@<TRIPOS>SUBSTRUCTURE
     1 GL8         1 TEMP              0 ****  ****    0 ROOT
