@<TRIPOS>MOLECULE
GL8
   76    81     1     0     0
SMALL
No Charge or Current Charge


@<TRIPOS>ATOM
      1 C1          -6.6850    -1.6640    -1.2020 c2         1 GL8      -0.228200
      2 C2          -7.7820    -2.3870    -0.8920 c2         1 GL8      -0.203200
      3 C3          -8.2220    -2.8000     0.5050 c6         1 GL8       0.205500
      4 C4          -7.1270    -2.5580     1.5660 c6         1 GL8      -0.072400
      5 C5          -6.3250    -1.2660     1.3000 c5         1 GL8       0.176300
      6 C6          -5.6800    -1.1820    -0.1390 c5         1 GL8      -0.003500
      7 C7          -6.7730     2.2400     0.7370 ca         1 GL8       0.231100
      8 C8          -6.0630     3.0800    -0.1470 ca         1 GL8      -0.201000
      9 C9          -5.1350     2.5310    -1.0560 ca         1 GL8      -0.008000
     10 C10         -3.8620     0.6680    -2.1030 ce         1 GL8       0.440800
     11 C11         -3.6720    -1.8370    -1.6370 c3         1 GL8       0.035600
     12 C12         -4.3130    -1.8850    -0.2420 c3         1 GL8      -0.072400
     13 C13         -6.5280     0.8580     0.6710 ca         1 GL8       0.088100
     14 C14         -5.6370     0.3120    -0.2390 ca         1 GL8      -0.079300
     15 C15         -4.8960     1.1370    -1.1170 ca         1 GL8      -0.255900
     16 C16         -7.9830     4.1230     1.7830 c3         1 GL8       0.133900
     17 C18         -0.7720    -0.3310    -1.1970 c3         1 GL8      -0.096400
     18 C19          0.7250    -0.3090    -1.5760 c3         1 GL8      -0.075400
     19 C20          1.6520    -0.1250    -0.3550 c3         1 GL8      -0.073400
     20 C21          3.1490    -0.1030    -0.7320 c3         1 GL8      -0.074400
     21 C22          4.0770     0.0820     0.4890 c3         1 GL8      -0.071400
     22 C23          5.5740     0.1040     0.1110 c3         1 GL8      -0.097400
     23 C24          6.4990     0.2880     1.3300 c3         1 GL8       0.112000
     24 C25          8.6250     1.4780     0.6680 c          1 GL8       0.587100
     25 C26         10.0250     1.0350     0.4080 ca         1 GL8      -0.148600
     26 C27         11.1590     1.7830     0.0600 ca         1 GL8      -0.043500
     27 C28         12.3750     1.0890    -0.1240 ca         1 GL8      -0.096000
     28 C29         12.4370    -0.3170     0.0420 ca         1 GL8      -0.096000
     29 C30         11.2840    -1.0520     0.3940 ca         1 GL8      -0.043500
     30 C31         10.0860    -0.3440     0.5700 ca         1 GL8      -0.148600
     31 C32          8.7270    -0.8350     0.9400 c          1 GL8       0.587100
     32 O1          -7.1430    -0.0690     1.4730 os         1 GL8      -0.270100
     33 O2          -7.6840     2.7220     1.6600 os         1 GL8      -0.285100
     34 O3          -9.4090    -2.0800     0.8430 oh         1 GL8      -0.634000
     35 O25          8.1810     2.6170     0.6370 o          1 GL8      -0.489500
     36 O32          8.3840    -1.9840     1.1790 o          1 GL8      -0.489500
     37 N1          -3.1310    -0.5290    -2.0580 nh         1 GL8      -0.194700
     38 N2           7.9250     0.3070     0.9580 n          1 GL8      -0.395400
     39 H1          -6.5140    -1.4110    -2.2500 ha         1 GL8       0.173000
     40 H2          -8.4490    -2.7100    -1.6940 ha         1 GL8       0.189000
     41 H3          -8.4470    -3.8770     0.4950 h1         1 GL8       0.051700
     42 H4C1        -7.5620    -2.5380     2.5740 hc         1 GL8       0.077700
     43 H4C2        -6.4310    -3.4060     1.5520 hc         1 GL8       0.077700
     44 H5          -5.5280    -1.2100     2.0550 h1         1 GL8       0.067700
     45 H8          -6.2080     4.1560    -0.1400 ha         1 GL8       0.147000
     46 H9          -4.5930     3.2070    -1.7160 ha         1 GL8       0.128000
     47 H10         -3.4130     1.4510    -2.7180 h4         1 GL8       0.037800
     48 H111        -4.3880    -2.1900    -2.3880 h1         1 GL8       0.086700
     49 H112        -2.8600    -2.5760    -1.6360 h1         1 GL8       0.086700
     50 H121        -4.4380    -2.9410     0.0280 hc         1 GL8       0.079700
     51 H122        -3.6100    -1.4650     0.4890 hc         1 GL8       0.079700
     52 H161        -7.0840     4.6940     2.0470 h1         1 GL8       0.062367
     53 H162        -8.3900     4.5200     0.8440 h1         1 GL8       0.062367
     54 H163        -8.7300     4.2850     2.5700 h1         1 GL8       0.062367
     55 H171        -1.4350    -1.4530    -2.9290 h1         1 GL8       0.083700
     56 H172        -1.5030     0.2920    -3.1350 h1         1 GL8       0.083700
     57 H181        -1.0310     0.6060    -0.6890 hc         1 GL8       0.058700
     58 H182        -0.9510    -1.1430    -0.4810 hc         1 GL8       0.058700
     59 H191         0.9820    -1.2470    -2.0860 hc         1 GL8       0.048700
     60 H192         0.9040     0.5040    -2.2910 hc         1 GL8       0.048700
     61 H201         1.3950     0.8130     0.1540 hc         1 GL8       0.044200
     62 H202         1.4720    -0.9370     0.3600 hc         1 GL8       0.044200
     63 H211         3.4070    -1.0400    -1.2410 hc         1 GL8       0.043200
     64 H212         3.3290     0.7100    -1.4470 hc         1 GL8       0.043200
     65 H221         3.8200     1.0190     0.9990 hc         1 GL8       0.042200
     66 H222         3.8970    -0.7310     1.2040 hc         1 GL8       0.042200
     67 H231         5.8330    -0.8340    -0.3960 hc         1 GL8       0.053200
     68 H232         5.7560     0.9170    -0.6020 hc         1 GL8       0.053200
     69 H241         6.2480     1.2280     1.8390 h1         1 GL8       0.064700
     70 H242         6.3250    -0.5270     2.0450 h1         1 GL8       0.064700
     71 H28         13.2730     1.6410    -0.3950 ha         1 GL8       0.126000
     72 H29         13.3820    -0.8360    -0.1030 ha         1 GL8       0.126000
     73 H30         11.3240    -2.1320     0.5240 ha         1 GL8       0.140000
     74 HA         -10.0410    -2.2230     0.1070 ho         1 GL8       0.450000
     75 C17         -1.6990    -0.5170    -2.4180 c3         1 GL8       0.020600
     76 H27         11.1040     2.8630    -0.0650 ha         1 GL8       0.140000
@<TRIPOS>BOND
     1     1     2 2   
     2     1     6 1   
     3     1    39 1   
     4     2     3 1   
     5     2    40 1   
     6     3     4 1   
     7     3    34 1   
     8     3    41 1   
     9     4     5 1   
    10     4    42 1   
    11     4    43 1   
    12     5     6 1   
    13     5    32 1   
    14     5    44 1   
    15     6    12 1   
    16     6    14 1   
    17     7     8 ar  
    18     7    13 ar  
    19     7    33 1   
    20     8     9 ar  
    21     8    45 1   
    22     9    15 ar  
    23     9    46 1   
    24    10    15 1   
    25    10    37 2   
    26    10    47 1   
    27    11    12 1   
    28    11    37 1   
    29    11    48 1   
    30    11    49 1   
    31    12    50 1   
    32    12    51 1   
    33    13    14 ar  
    34    13    32 1   
    35    14    15 ar  
    36    16    33 1   
    37    16    52 1   
    38    16    53 1   
    39    16    54 1   
    40    17    18 1   
    41    17    57 1   
    42    17    58 1   
    43    17    75 1   
    44    18    19 1   
    45    18    59 1   
    46    18    60 1   
    47    19    20 1   
    48    19    61 1   
    49    19    62 1   
    50    20    21 1   
    51    20    63 1   
    52    20    64 1   
    53    21    22 1   
    54    21    65 1   
    55    21    66 1   
    56    22    23 1   
    57    22    67 1   
    58    22    68 1   
    59    23    38 1   
    60    23    69 1   
    61    23    70 1   
    62    24    25 1   
    63    24    35 2   
    64    24    38 1   
    65    25    26 ar  
    66    25    30 ar  
    67    26    27 ar  
    68    26    76 1   
    69    27    28 ar  
    70    27    71 1   
    71    28    29 ar  
    72    28    72 1   
    73    29    30 ar  
    74    29    73 1   
    75    30    31 1   
    76    31    36 2   
    77    31    38 1   
    78    34    74 1   
    79    37    75 1   
    80    55    75 1   
    81    56    75 1   
@<TRIPOS>SUBSTRUCTURE
     1 GL8         1 TEMP              0 ****  ****    0 ROOT
