@<TRIPOS>MOLECULE
GL9
   36    37     1     0     0
SMALL
abcg2


@<TRIPOS>ATOM
      1 C1          -0.0250    -0.6500    -0.3030 c5         1 GL9       0.286400
      2 C2           1.3770    -0.7850    -0.8970 c6         1 GL9       0.155300
      3 O2           2.2670    -0.6820     0.1780 oh         1 GL9      -0.697000
      4 C3           1.6270     0.2480    -1.9860 c6         1 GL9       0.130300
      5 O3           2.8770    -0.0660    -2.5520 oh         1 GL9      -0.666000
      6 C4           0.5040     0.2080    -3.0130 c6         1 GL9       0.107300
      7 O4           0.7590     1.2280    -3.9500 oh         1 GL9      -0.715000
      8 C5          -0.8380     0.4240    -2.3090 c6         1 GL9       0.149300
      9 C6          -2.0070     0.2680    -3.2570 c3         1 GL9       0.170600
     10 O6          -3.1960     0.5560    -2.5610 oh         1 GL9      -0.701000
     11 O5          -1.0120    -0.5550    -1.2840 os         1 GL9      -0.445000
     12 N2          -0.3440    -1.7640     0.5360 ns         1 GL9      -0.504900
     13 C8          -0.6670    -1.4390     1.8040 c          1 GL9       0.644000
     14 O8          -0.9560    -2.1510     2.7280 o          1 GL9      -0.518000
     15 N1          -0.6050    -0.0360     1.8610 n          1 GL9      -0.244000
     16 C7          -0.1350     0.5170     0.7010 c          1 GL9       0.570000
     17 O7           0.0820     1.6820     0.5100 o          1 GL9      -0.484000
     18 N3          -0.8450     0.6580     2.9910 ns         1 GL9      -0.365500
     19 C9           0.1630     0.8910     3.8840 c          1 GL9       0.614100
     20 O9           1.2830     0.4710     3.6990 o          1 GL9      -0.558100
     21 C10         -0.2470     1.7210     5.0660 c3         1 GL9      -0.174100
     22 H2           1.4280    -1.7810    -1.3670 h1         1 GL9       0.052700
     23 HO2          3.1670    -0.7470    -0.1600 ho         1 GL9       0.532000
     24 H3           1.6460     1.2520    -1.5360 h1         1 GL9       0.082700
     25 HO3          3.1100     0.6340    -3.1710 ho         1 GL9       0.467000
     26 H4           0.5010    -0.7810    -3.4950 h1         1 GL9       0.052700
     27 HO4          0.4280     0.9590    -4.8120 ho         1 GL9       0.512000
     28 H5          -0.8580     1.4350    -1.8870 h1         1 GL9       0.089700
     29 H61         -1.8570     0.9560    -4.0960 h1         1 GL9       0.027200
     30 H62         -2.0060    -0.7510    -3.6650 h1         1 GL9       0.027200
     31 HO6         -3.9280     0.4730    -3.1790 ho         1 GL9       0.506000
     32 HN2         -0.2390    -2.7250     0.2490 hn         1 GL9       0.353500
     33 HN3         -1.7830     1.0000     3.1250 hn         1 GL9       0.343500
     34 H101         0.2130     1.3230     5.9680 hc         1 GL9       0.065367
     35 H102         0.1190     2.7390     4.9270 hc         1 GL9       0.065367
     36 H103        -1.3230     1.7680     5.2140 hc         1 GL9       0.065367
@<TRIPOS>BOND
     1     1     2 1   
     2     1    11 1   
     3     1    12 1   
     4     1    16 1   
     5     2     3 1   
     6     2     4 1   
     7     2    22 1   
     8     3    23 1   
     9     4     5 1   
    10     4     6 1   
    11     4    24 1   
    12     5    25 1   
    13     6     7 1   
    14     6     8 1   
    15     6    26 1   
    16     7    27 1   
    17     8     9 1   
    18     8    11 1   
    19     8    28 1   
    20     9    10 1   
    21     9    29 1   
    22     9    30 1   
    23    10    31 1   
    24    12    13 1   
    25    12    32 1   
    26    13    14 2   
    27    13    15 1   
    28    15    16 1   
    29    15    18 1   
    30    16    17 2   
    31    18    19 1   
    32    18    33 1   
    33    19    20 2   
    34    19    21 1   
    35    21    34 1   
    36    21    35 1   
    37    21    36 1   
@<TRIPOS>SUBSTRUCTURE
     1 GL9         1 TEMP              0 ****  ****    0 ROOT
