@<TRIPOS>MOLECULE
GL9
   36    37     1     0     0
SMALL
No Charge or Current Charge


@<TRIPOS>ATOM
      1 C1           0.0430    -0.5200    -0.2780 c5         1 GL9       0.286400
      2 C2           1.4290    -0.7930    -0.9530 c6         1 GL9       0.155300
      3 O2           2.5260    -0.7440    -0.0190 oh         1 GL9      -0.697000
      4 C3           1.6810     0.2240    -2.0990 c6         1 GL9       0.130300
      5 O3           2.9420    -0.0440    -2.7400 oh         1 GL9      -0.666000
      6 C4           0.5290     0.1460    -3.1350 c6         1 GL9       0.107300
      7 O4           0.7760     1.0880    -4.2020 oh         1 GL9      -0.715000
      8 C5          -0.8430     0.4050    -2.4280 c6         1 GL9       0.149300
      9 C6          -2.0700     0.2050    -3.3780 c3         1 GL9       0.170600
     10 O6          -3.3350     0.4200    -2.7220 oh         1 GL9      -0.701000
     11 O5          -1.0170    -0.4700    -1.2750 os         1 GL9      -0.445000
     12 N2          -0.3340    -1.5710     0.6800 ns         1 GL9      -0.504900
     13 C8          -0.4480    -1.0940     1.9500 c          1 GL9       0.644000
     14 O8          -0.8060    -1.7540     2.9110 o          1 GL9      -0.518000
     15 N1          -0.1720     0.2640     1.9080 n          1 GL9      -0.244000
     16 C7           0.0400     0.7720     0.6350 c          1 GL9       0.570000
     17 O7           0.1150     1.9630     0.3430 o          1 GL9      -0.484000
     18 N3          -0.3490     1.1660     3.0570 ns         1 GL9      -0.365500
     19 C9           0.1390     0.7450     4.2860 c          1 GL9       0.614100
     20 O9           1.0720    -0.0380     4.4070 o          1 GL9      -0.558100
     21 C10         -0.5370     1.3890     5.4910 c3         1 GL9      -0.174100
     22 H2           1.3840    -1.7960    -1.4040 h1         1 GL9       0.052700
     23 HO2          3.3340    -0.6710    -0.5850 ho         1 GL9       0.532000
     24 H3           1.6900     1.2410    -1.6760 h1         1 GL9       0.082700
     25 HO3          2.8910     0.4290    -3.6040 ho         1 GL9       0.467000
     26 H4           0.5100    -0.8770    -3.5420 h1         1 GL9       0.052700
     27 HO4          0.3320     0.7490    -5.0160 ho         1 GL9       0.512000
     28 H5          -0.8640     1.4480    -2.0810 h1         1 GL9       0.089700
     29 H61         -1.9700     0.8980    -4.2240 h1         1 GL9       0.027200
     30 H62         -2.0260    -0.8150    -3.7840 h1         1 GL9       0.027200
     31 HO6         -4.0390     0.1980    -3.3750 ho         1 GL9       0.506000
     32 HN2         -0.5470    -2.5380     0.4780 hn         1 GL9       0.353500
     33 HN3         -1.1800     1.7510     3.0650 hn         1 GL9       0.343500
     34 H101        -0.0980     1.0670     6.4420 hc         1 GL9       0.065367
     35 H102        -0.5060     2.4780     5.3790 hc         1 GL9       0.065367
     36 H103        -1.6120     1.1790     5.4500 hc         1 GL9       0.065367
@<TRIPOS>BOND
     1     1     2 1   
     2     1    11 1   
     3     1    12 1   
     4     1    16 1   
     5     2     3 1   
     6     2     4 1   
     7     2    22 1   
     8     3    23 1   
     9     4     5 1   
    10     4     6 1   
    11     4    24 1   
    12     5    25 1   
    13     6     7 1   
    14     6     8 1   
    15     6    26 1   
    16     7    27 1   
    17     8     9 1   
    18     8    11 1   
    19     8    28 1   
    20     9    10 1   
    21     9    29 1   
    22     9    30 1   
    23    10    31 1   
    24    12    13 1   
    25    12    32 1   
    26    13    14 2   
    27    13    15 1   
    28    15    16 1   
    29    15    18 1   
    30    16    17 2   
    31    18    19 1   
    32    18    33 1   
    33    19    20 2   
    34    19    21 1   
    35    21    34 1   
    36    21    35 1   
    37    21    36 1   
@<TRIPOS>SUBSTRUCTURE
     1 GL9         1 TEMP              0 ****  ****    0 ROOT
