@<TRIPOS>MOLECULE
GLA
   24    24     1     0     0
SMALL
No Charge or Current Charge


@<TRIPOS>ATOM
      1 C1          14.3260    56.8900    55.1180 c6         1 GLA       0.388300
      2 C2          12.8050    57.1410    54.7970 c6         1 GLA       0.161300
      3 C3          12.3170    56.1840    53.6630 c6         1 GLA       0.139300
      4 C4          13.2330    56.3160    52.4090 c6         1 GLA       0.114300
      5 C5          14.7170    56.0630    52.8480 c6         1 GLA       0.137300
      6 C6          15.7400    56.1890    51.6710 c3         1 GLA       0.167600
      7 O1          14.5790    55.5970    55.6770 oh         1 GLA      -0.727000
      8 O2          11.9390    57.0250    55.9530 oh         1 GLA      -0.705000
      9 O3          10.9590    56.4950    53.2990 oh         1 GLA      -0.711000
     10 O4          13.0300    57.6220    51.8190 oh         1 GLA      -0.695000
     11 O5          15.1090    56.9820    53.9110 os         1 GLA      -0.462000
     12 O6          17.0940    55.8930    52.0650 oh         1 GLA      -0.707000
     13 H1          14.6630    57.6670    55.8230 h2         1 GLA       0.077700
     14 H2          12.7400    58.1690    54.4100 h1         1 GLA       0.069700
     15 H3          12.3810    55.1480    54.0300 h1         1 GLA       0.059700
     16 H4          12.9490    55.5340    51.6880 h1         1 GLA       0.031700
     17 H5          14.7930    55.0300    53.2190 h1         1 GLA       0.063700
     18 H61         15.4270    55.5040    50.8710 h1         1 GLA       0.024200
     19 H62         15.6860    57.2090    51.2680 h1         1 GLA       0.024200
     20 HO1         15.5590    55.5340    55.7130 ho         1 GLA       0.516000
     21 HO2         11.0480    56.8280    55.5730 ho         1 GLA       0.519000
     22 HO3         11.0580    57.1570    52.5710 ho         1 GLA       0.506000
     23 HO4         13.4860    57.6310    50.9450 ho         1 GLA       0.500000
     24 HO6         17.6670    56.0740    51.2840 ho         1 GLA       0.505000
@<TRIPOS>BOND
     1     1     2 1   
     2     1     7 1   
     3     1    11 1   
     4     1    13 1   
     5     2     3 1   
     6     2     8 1   
     7     2    14 1   
     8     3     4 1   
     9     3     9 1   
    10     3    15 1   
    11     4     5 1   
    12     4    10 1   
    13     4    16 1   
    14     5     6 1   
    15     5    11 1   
    16     5    17 1   
    17     6    12 1   
    18     6    18 1   
    19     6    19 1   
    20     7    20 1   
    21     8    21 1   
    22     9    22 1   
    23    10    23 1   
    24    12    24 1   
@<TRIPOS>SUBSTRUCTURE
     1 GLA         1 TEMP              0 ****  ****    0 ROOT
