@<TRIPOS>MOLECULE
GLA
   24    24     1     0     0
SMALL
abcg2


@<TRIPOS>ATOM
      1 C1          14.3350    56.8030    55.0450 c6         1 GLA       0.388300
      2 C2          12.8770    57.1360    54.7310 c6         1 GLA       0.161300
      3 C3          12.3780    56.2790    53.5710 c6         1 GLA       0.139300
      4 C4          13.2970    56.4460    52.3600 c6         1 GLA       0.114300
      5 C5          14.7250    56.1130    52.8000 c6         1 GLA       0.137300
      6 C6          15.7350    56.3030    51.6880 c3         1 GLA       0.167600
      7 O1          14.3930    55.5260    55.5930 oh         1 GLA      -0.727000
      8 O2          12.1180    56.9510    55.8970 oh         1 GLA      -0.705000
      9 O3          11.0480    56.6580    53.3110 oh         1 GLA      -0.711000
     10 O4          13.1710    57.7620    51.8740 oh         1 GLA      -0.695000
     11 O5          15.1190    56.9310    53.8900 os         1 GLA      -0.462000
     12 O6          16.9770    55.7880    52.1050 oh         1 GLA      -0.707000
     13 H1          14.7400    57.5480    55.7400 h2         1 GLA       0.077700
     14 H2          12.8580    58.1890    54.4170 h1         1 GLA       0.069700
     15 H3          12.4300    55.2230    53.8710 h1         1 GLA       0.059700
     16 H4          13.0040    55.7130    51.5950 h1         1 GLA       0.031700
     17 H5          14.7390    55.0520    53.0880 h1         1 GLA       0.063700
     18 H61         15.3580    55.7790    50.7980 h1         1 GLA       0.024200
     19 H62         15.8060    57.3670    51.4310 h1         1 GLA       0.024200
     20 HO1         15.2710    55.3850    55.9630 ho         1 GLA       0.516000
     21 HO2         11.2090    57.1960    55.6950 ho         1 GLA       0.519000
     22 HO3         10.6270    55.9700    52.7870 ho         1 GLA       0.506000
     23 HO4         13.4630    57.7870    50.9590 ho         1 GLA       0.500000
     24 HO6         17.6240    55.9750    51.4190 ho         1 GLA       0.505000
@<TRIPOS>BOND
     1     1     2 1   
     2     1     7 1   
     3     1    11 1   
     4     1    13 1   
     5     2     3 1   
     6     2     8 1   
     7     2    14 1   
     8     3     4 1   
     9     3     9 1   
    10     3    15 1   
    11     4     5 1   
    12     4    10 1   
    13     4    16 1   
    14     5     6 1   
    15     5    11 1   
    16     5    17 1   
    17     6    12 1   
    18     6    18 1   
    19     6    19 1   
    20     7    20 1   
    21     8    21 1   
    22     9    22 1   
    23    10    23 1   
    24    12    24 1   
@<TRIPOS>SUBSTRUCTURE
     1 GLA         1 TEMP              0 ****  ****    0 ROOT
