@<TRIPOS>MOLECULE
GLC
   24    24     1     0     0
SMALL
bcc


@<TRIPOS>ATOM
      1 C1           8.4820    13.2130    37.4320 c6         1 GLC       0.351900
      2 C2           8.6280    12.6170    38.8360 c6         1 GLC       0.052100
      3 C3           8.9230    13.7050    39.8680 c6         1 GLC       0.057100
      4 C4          10.1170    14.5480    39.4260 c6         1 GLC       0.090100
      5 C5           9.8680    15.0720    38.0120 c6         1 GLC       0.108100
      6 C6          11.0670    15.8280    37.4610 c3         1 GLC       0.146400
      7 O1           7.2900    13.8970    37.2260 oh         1 GLC      -0.587800
      8 O2           7.4620    11.8970    39.1360 oh         1 GLC      -0.574800
      9 O3           9.1010    13.1570    41.1560 oh         1 GLC      -0.590800
     10 O4          10.3170    15.6500    40.2750 oh         1 GLC      -0.587800
     11 O5           9.6140    13.9870    37.1400 os         1 GLC      -0.406600
     12 O6          10.8320    16.3850    36.1900 oh         1 GLC      -0.575800
     13 H1           8.4990    12.4080    36.6930 h2         1 GLC       0.118700
     14 H2           9.5060    11.9530    38.7960 h1         1 GLC       0.044700
     15 H3           8.0560    14.3710    39.9640 h1         1 GLC       0.093700
     16 H4          11.0110    13.9020    39.3990 h1         1 GLC       0.041700
     17 H5           9.0040    15.7560    38.0460 h1         1 GLC       0.049700
     18 H61         11.3690    16.5890    38.1870 h1         1 GLC       0.058700
     19 H62         11.9050    15.1340    37.3540 h1         1 GLC       0.058700
     20 HO1          7.0020    14.3620    38.0180 ho         1 GLC       0.410000
     21 HO2          7.5490    11.5470    40.0290 ho         1 GLC       0.419000
     22 HO3          9.8640    12.5660    41.1400 ho         1 GLC       0.403000
     23 HO4         10.4370    15.3210    41.1720 ho         1 GLC       0.420000
     24 HO6         10.1930    17.0970    36.2880 ho         1 GLC       0.400000
@<TRIPOS>BOND
     1     1     2 1   
     2     1     7 1   
     3     1    11 1   
     4     1    13 1   
     5     2     3 1   
     6     2     8 1   
     7     2    14 1   
     8     3     4 1   
     9     3     9 1   
    10     3    15 1   
    11     4     5 1   
    12     4    10 1   
    13     4    16 1   
    14     5     6 1   
    15     5    11 1   
    16     5    17 1   
    17     6    12 1   
    18     6    18 1   
    19     6    19 1   
    20     7    20 1   
    21     8    21 1   
    22     9    22 1   
    23    10    23 1   
    24    12    24 1   
@<TRIPOS>SUBSTRUCTURE
     1 GLC         1 TEMP              0 ****  ****    0 ROOT
