@<TRIPOS>MOLECULE
GLC
   24    24     1     0     0
SMALL
No Charge or Current Charge


@<TRIPOS>ATOM
      1 C1           8.3830    13.4320    37.4090 c6         1 GLC       0.398300
      2 C2           8.5880    12.7000    38.7810 c6         1 GLC       0.075300
      3 C3           8.9900    13.7130    39.8940 c6         1 GLC       0.080300
      4 C4          10.2210    14.5510    39.4450 c6         1 GLC       0.113300
      5 C5           9.9060    15.2360    38.0790 c6         1 GLC       0.131300
      6 C6          11.1230    16.0240    37.5090 c3         1 GLC       0.169600
      7 O1           7.2430    14.2900    37.4550 oh         1 GLC      -0.710000
      8 O2           7.4030    11.9790    39.1850 oh         1 GLC      -0.697000
      9 O3           9.2610    13.0280    41.1380 oh         1 GLC      -0.713000
     10 O4          10.5430    15.5090    40.4650 oh         1 GLC      -0.710000
     11 O5           9.5400    14.2360    37.0860 os         1 GLC      -0.453000
     12 O6          10.9170    16.3670    36.1280 oh         1 GLC      -0.698000
     13 H1           8.2450    12.6670    36.6250 h2         1 GLC       0.118700
     14 H2           9.4180    11.9900    38.6480 h1         1 GLC       0.044700
     15 H3           8.1490    14.4110    40.0310 h1         1 GLC       0.093700
     16 H4          11.0720    13.8690    39.2960 h1         1 GLC       0.041700
     17 H5           9.0720    15.9420    38.2040 h1         1 GLC       0.049700
     18 H61         11.2800    16.9250    38.1170 h1         1 GLC       0.058700
     19 H62         12.0190    15.3960    37.6130 h1         1 GLC       0.058700
     20 HO1          6.5600    13.7370    37.8980 ho         1 GLC       0.509000
     21 HO2          7.4940    11.8460    40.1600 ho         1 GLC       0.518000
     22 HO3         10.0160    12.4110    40.9850 ho         1 GLC       0.502000
     23 HO4         10.2960    15.0710    41.3160 ho         1 GLC       0.519000
     24 HO6         10.3600    15.6320    35.7760 ho         1 GLC       0.499000
@<TRIPOS>BOND
     1     1     2 1   
     2     1     7 1   
     3     1    11 1   
     4     1    13 1   
     5     2     3 1   
     6     2     8 1   
     7     2    14 1   
     8     3     4 1   
     9     3     9 1   
    10     3    15 1   
    11     4     5 1   
    12     4    10 1   
    13     4    16 1   
    14     5     6 1   
    15     5    11 1   
    16     5    17 1   
    17     6    12 1   
    18     6    18 1   
    19     6    19 1   
    20     7    20 1   
    21     8    21 1   
    22     9    22 1   
    23    10    23 1   
    24    12    24 1   
@<TRIPOS>SUBSTRUCTURE
     1 GLC         1 TEMP              0 ****  ****    0 ROOT
