@<TRIPOS>MOLECULE
GLD
   22    22     1     0     0
SMALL
bcc


@<TRIPOS>ATOM
      1 C1          49.6490    89.6320    45.9440 c6         1 GLD       0.343900
      2 C2          49.9000    88.1300    45.8160 c6         1 GLD       0.137100
      3 C3          49.0590    87.5430    44.6920 c6         1 GLD       0.109100
      4 C4          47.5980    87.8930    44.9430 c6         1 GLD      -0.142400
      5 C5          47.4240    89.3970    45.1040 c6         1 GLD       0.152100
      6 C6          46.0080    89.7760    45.4870 c3         1 GLD      -0.088100
      7 O1          50.1690    90.2640    44.8180 oh         1 GLD      -0.601800
      8 O2          51.2780    87.9250    45.6390 oh         1 GLD      -0.580800
      9 O3          49.2910    86.1500    44.6860 oh         1 GLD      -0.606800
     10 O5          48.2850    89.8880    46.1290 os         1 GLD      -0.441600
     11 H1          50.1290    90.0040    46.8580 h2         1 GLD       0.074700
     12 H2          49.5540    87.6760    46.7580 h1         1 GLD       0.050700
     13 H3          49.3760    87.9890    43.7390 h1         1 GLD       0.058700
     14 H4          46.9770    87.5450    44.1130 hc         1 GLD       0.056200
     15 H42         47.2510    87.3820    45.8470 hc         1 GLD       0.056200
     16 H5          47.6720    89.8830    44.1520 h1         1 GLD       0.045700
     17 H61         45.9020    90.8570    45.5890 hc         1 GLD       0.044700
     18 H62         45.3130    89.4450    44.7160 hc         1 GLD       0.044700
     19 H63         45.7170    89.3090    46.4290 hc         1 GLD       0.044700
     20 HO1         50.1810    91.2150    44.9720 ho         1 GLD       0.413000
     21 HO2         51.4240    86.9760    45.5650 ho         1 GLD       0.420000
     22 HO3         48.9040    85.7790    43.8860 ho         1 GLD       0.410000
@<TRIPOS>BOND
     1     1     2 1   
     2     1     7 1   
     3     1    10 1   
     4     1    11 1   
     5     2     3 1   
     6     2     8 1   
     7     2    12 1   
     8     3     4 1   
     9     3     9 1   
    10     3    13 1   
    11     4     5 1   
    12     4    14 1   
    13     4    15 1   
    14     5     6 1   
    15     5    10 1   
    16     5    16 1   
    17     6    17 1   
    18     6    18 1   
    19     6    19 1   
    20     7    20 1   
    21     8    21 1   
    22     9    22 1   
@<TRIPOS>SUBSTRUCTURE
     1 GLD         1 TEMP              0 ****  ****    0 ROOT
