@<TRIPOS>MOLECULE
GLD
   22    22     1     0     0
SMALL
No Charge or Current Charge


@<TRIPOS>ATOM
      1 C1          49.7130    89.6690    45.9990 c6         1 GLD       0.390300
      2 C2          49.9780    88.1210    45.8800 c6         1 GLD       0.160300
      3 C3          49.1210    87.5180    44.7290 c6         1 GLD       0.132300
      4 C4          47.6300    87.8660    44.9530 c6         1 GLD      -0.142400
      5 C5          47.4570    89.4010    45.0880 c6         1 GLD       0.175300
      6 C6          46.0030    89.7990    45.4360 c3         1 GLD      -0.088100
      7 O1          50.1390    90.4120    44.8530 oh         1 GLD      -0.724000
      8 O2          51.3690    87.7740    45.6900 oh         1 GLD      -0.703000
      9 O3          49.3010    86.0920    44.6680 oh         1 GLD      -0.729000
     10 O5          48.2990    89.9120    46.1510 os         1 GLD      -0.488000
     11 H1          50.2370    90.0410    46.8940 h2         1 GLD       0.074700
     12 H2          49.6270    87.6700    46.8200 h1         1 GLD       0.050700
     13 H3          49.4410    87.9770    43.7800 h1         1 GLD       0.058700
     14 H4          47.0240    87.4980    44.1130 hc         1 GLD       0.056200
     15 H42         47.2570    87.3670    45.8580 hc         1 GLD       0.056200
     16 H5          47.7270    89.8890    44.1390 h1         1 GLD       0.045700
     17 H61         45.9030    90.8870    45.5220 hc         1 GLD       0.044700
     18 H62         45.3080    89.4630    44.6570 hc         1 GLD       0.044700
     19 H63         45.6840    89.3530    46.3860 hc         1 GLD       0.044700
     20 HO1         49.8100    91.3220    45.0180 ho         1 GLD       0.512000
     21 HO2         51.3300    86.8720    45.2880 ho         1 GLD       0.519000
     22 HO3         48.7040    85.7550    43.9590 ho         1 GLD       0.509000
@<TRIPOS>BOND
     1     1     2 1   
     2     1     7 1   
     3     1    10 1   
     4     1    11 1   
     5     2     3 1   
     6     2     8 1   
     7     2    12 1   
     8     3     4 1   
     9     3     9 1   
    10     3    13 1   
    11     4     5 1   
    12     4    14 1   
    13     4    15 1   
    14     5     6 1   
    15     5    10 1   
    16     5    16 1   
    17     6    17 1   
    18     6    18 1   
    19     6    19 1   
    20     7    20 1   
    21     8    21 1   
    22     9    22 1   
@<TRIPOS>SUBSTRUCTURE
     1 GLD         1 TEMP              0 ****  ****    0 ROOT
