@<TRIPOS>MOLECULE
GLE
   57    56     1     0     0
SMALL
No Charge or Current Charge


@<TRIPOS>ATOM
      1 C1           2.0990     0.8280    -1.1330 c3         1 GLE       0.161600
      2 O1           1.6330     1.2940     0.1540 os         1 GLE      -0.464000
      3 C2           0.9350     0.2590    -2.0050 c3         1 GLE       0.209300
      4 O2           0.4770    -1.0010    -1.4610 os         1 GLE      -0.594400
      5 C3           1.4150     0.0250    -3.4650 c3         1 GLE       0.148600
      6 O3           0.2870    -0.2120    -4.3250 os         1 GLE      -0.404000
      7 C31          0.6250    -0.4320    -5.7100 c3         1 GLE       0.102600
      8 C32         -0.6650    -0.6970    -6.5260 c3         1 GLE       0.303000
      9 F31         -0.3730    -0.8470    -7.8380 f          1 GLE      -0.114000
     10 F32         -1.2840    -1.8260    -6.1090 f          1 GLE      -0.114000
     11 F33         -1.5390     0.3300    -6.4100 f          1 GLE      -0.114000
     12 P2          -1.0020    -1.1860    -0.8340 p5         1 GLE       1.403800
     13 O21         -1.0210    -2.3660     0.0810 o          1 GLE      -0.827500
     14 O22         -1.5060     0.0390    -0.1480 o          1 GLE      -0.827500
     15 C2P         -2.4600    -0.4660    -2.9090 c3         1 GLE       0.215900
     16 O23         -1.8430    -1.5220    -2.1680 os         1 GLE      -0.593400
     17 C11          1.7190     0.3410     1.2290 c3         1 GLE       0.160600
     18 C12          1.1500     1.0120     2.4930 c3         1 GLE      -0.086400
     19 C13          1.2020     0.0960     3.7360 c3         1 GLE      -0.074400
     20 C14          0.6340     0.7680     5.0060 c3         1 GLE      -0.069400
     21 C15          0.6880    -0.1480     6.2490 c3         1 GLE      -0.073400
     22 C16          0.1220     0.5240     7.5190 c3         1 GLE      -0.074400
     23 C17          0.1760    -0.3910     8.7620 c3         1 GLE      -0.074400
     24 C18         -0.3900     0.2810    10.0330 c3         1 GLE      -0.076400
     25 C19         -0.3360    -0.6340    11.2760 c3         1 GLE      -0.075400
     26 C20         -0.9010     0.0360    12.5430 c3         1 GLE      -0.087100
     27 H11          2.5390     1.6750    -1.6740 h1         1 GLE       0.026200
     28 H12          2.8900     0.0730    -1.0220 h1         1 GLE       0.026200
     29 H2           0.1340     1.0100    -2.0250 h1         1 GLE       0.079700
     30 H31          1.9600     0.9140    -3.8090 h1         1 GLE       0.015200
     31 H32          2.1090    -0.8260    -3.4910 h1         1 GLE       0.015200
     32 H311         1.1370     0.4460    -6.1250 h1         1 GLE       0.040700
     33 H312         1.2950    -1.2960    -5.8100 h1         1 GLE       0.040700
     34 H2P1        -2.6200    -0.7750    -3.9490 h1         1 GLE       0.004367
     35 H2P2        -3.4360    -0.2160    -2.4750 h1         1 GLE       0.004367
     36 H2P3        -1.8440     0.4420    -2.9130 h1         1 GLE       0.004367
     37 H111         2.7640     0.0540     1.4070 h1         1 GLE       0.032200
     38 H112         1.1480    -0.5690     1.0110 h1         1 GLE       0.032200
     39 H121         0.1100     1.3060     2.3030 hc         1 GLE       0.059700
     40 H122         1.7150     1.9300     2.6960 hc         1 GLE       0.059700
     41 H131         2.2410    -0.2030     3.9200 hc         1 GLE       0.044200
     42 H132         0.6360    -0.8220     3.5300 hc         1 GLE       0.044200
     43 H141        -0.4060     1.0650     4.8230 hc         1 GLE       0.037700
     44 H142         1.1990     1.6860     5.2110 hc         1 GLE       0.037700
     45 H151         1.7280    -0.4460     6.4330 hc         1 GLE       0.035700
     46 H152         0.1230    -1.0660     6.0450 hc         1 GLE       0.035700
     47 H161        -0.9180     0.8220     7.3360 hc         1 GLE       0.035200
     48 H162         0.6870     1.4420     7.7230 hc         1 GLE       0.035200
     49 H171         1.2160    -0.6890     8.9450 hc         1 GLE       0.034700
     50 H172        -0.3900    -1.3090     8.5580 hc         1 GLE       0.034700
     51 H181        -1.4300     0.5790     9.8500 hc         1 GLE       0.035700
     52 H182         0.1750     1.1990    10.2370 hc         1 GLE       0.035700
     53 H191         0.7030    -0.9320    11.4630 hc         1 GLE       0.034700
     54 H192        -0.9020    -1.5520    11.0760 hc         1 GLE       0.034700
     55 H201        -0.8410    -0.6490    13.3970 hc         1 GLE       0.027700
     56 H202        -0.3320     0.9410    12.7900 hc         1 GLE       0.027700
     57 H203        -1.9520     0.3150    12.3990 hc         1 GLE       0.027700
@<TRIPOS>BOND
     1     1     2 1   
     2     1     3 1   
     3     1    27 1   
     4     1    28 1   
     5     2    17 1   
     6     3     4 1   
     7     3     5 1   
     8     3    29 1   
     9     4    12 1   
    10     5     6 1   
    11     5    30 1   
    12     5    31 1   
    13     6     7 1   
    14     7     8 1   
    15     7    32 1   
    16     7    33 1   
    17     8     9 1   
    18     8    10 1   
    19     8    11 1   
    20    12    13 1   
    21    12    14 1   
    22    12    16 1   
    23    15    16 1   
    24    15    34 1   
    25    15    35 1   
    26    15    36 1   
    27    17    18 1   
    28    17    37 1   
    29    17    38 1   
    30    18    19 1   
    31    18    39 1   
    32    18    40 1   
    33    19    20 1   
    34    19    41 1   
    35    19    42 1   
    36    20    21 1   
    37    20    43 1   
    38    20    44 1   
    39    21    22 1   
    40    21    45 1   
    41    21    46 1   
    42    22    23 1   
    43    22    47 1   
    44    22    48 1   
    45    23    24 1   
    46    23    49 1   
    47    23    50 1   
    48    24    25 1   
    49    24    51 1   
    50    24    52 1   
    51    25    26 1   
    52    25    53 1   
    53    25    54 1   
    54    26    55 1   
    55    26    56 1   
    56    26    57 1   
@<TRIPOS>SUBSTRUCTURE
     1 GLE         1 TEMP              0 ****  ****    0 ROOT
