@<TRIPOS>MOLECULE
GLE
   57    56     1     0     0
SMALL
bcc


@<TRIPOS>ATOM
      1 C1           2.7930     0.6970    -1.2470 c3         1 GLE       0.138400
      2 O1           2.7350     1.2740     0.0320 os         1 GLE      -0.417600
      3 C2           1.4090     0.4750    -1.8470 c3         1 GLE       0.186100
      4 O2           0.7340    -0.5380    -1.1280 os         1 GLE      -0.571200
      5 C3           1.5210     0.0660    -3.3030 c3         1 GLE       0.125400
      6 O3           0.2310     0.0620    -3.8650 os         1 GLE      -0.357600
      7 C31          0.2010    -0.4420    -5.1610 c3         1 GLE       0.079400
      8 C32         -1.2360    -0.4140    -5.6250 c3         1 GLE       0.666900
      9 F31         -1.3300    -0.8640    -6.8850 f          1 GLE      -0.235300
     10 F32         -2.0330    -1.1770    -4.8710 f          1 GLE      -0.235300
     11 F33         -1.7480     0.8230    -5.6070 f          1 GLE      -0.235300
     12 P2          -0.6740    -0.3090    -0.3270 p5         1 GLE       1.403800
     13 O21         -0.6600    -1.2540     0.8360 o          1 GLE      -0.827500
     14 O22         -0.9590     1.1500    -0.1340 o          1 GLE      -0.827500
     15 C2P         -3.0450    -0.9790    -1.2010 c3         1 GLE       0.192700
     16 O23         -1.6670    -0.9080    -1.4920 os         1 GLE      -0.570200
     17 C11          2.6870     0.3800     1.1300 c3         1 GLE       0.137400
     18 C12          1.9000     1.0190     2.2560 c3         1 GLE      -0.086400
     19 C13          1.7390     0.0800     3.4430 c3         1 GLE      -0.074400
     20 C14          0.9940     0.7200     4.6070 c3         1 GLE      -0.069400
     21 C15          0.8350    -0.2090     5.8040 c3         1 GLE      -0.073400
     22 C16          0.0820     0.4310     6.9640 c3         1 GLE      -0.074400
     23 C17         -0.0660    -0.4880     8.1690 c3         1 GLE      -0.074400
     24 C18         -0.8180     0.1560     9.3260 c3         1 GLE      -0.076400
     25 C19         -0.9650    -0.7570    10.5370 c3         1 GLE      -0.075400
     26 C20         -1.7170    -0.0990    11.6850 c3         1 GLE      -0.087100
     27 H11          3.3390     1.3930    -1.8900 h1         1 GLE       0.026200
     28 H12          3.3580    -0.2450    -1.2440 h1         1 GLE       0.026200
     29 H2           0.8580     1.4210    -1.7910 h1         1 GLE       0.079700
     30 H31          2.1740     0.7700    -3.8370 h1         1 GLE       0.015200
     31 H32          1.9830    -0.9280    -3.3820 h1         1 GLE       0.015200
     32 H311         0.8020     0.1550    -5.8610 h1         1 GLE       0.040700
     33 H312         0.5660    -1.4760    -5.2170 h1         1 GLE       0.040700
     34 H2P1        -3.5600    -1.3310    -2.0940 h1         1 GLE       0.004367
     35 H2P2        -3.2610    -1.6740    -0.3840 h1         1 GLE       0.004367
     36 H2P3        -3.4630    -0.0030    -0.9340 h1         1 GLE       0.004367
     37 H111         3.7070     0.1440     1.4660 h1         1 GLE       0.032200
     38 H112         2.2130    -0.5650     0.8570 h1         1 GLE       0.032200
     39 H121         0.9140     1.2960     1.8750 hc         1 GLE       0.059700
     40 H122         2.3960     1.9420     2.5770 hc         1 GLE       0.059700
     41 H131         2.7230    -0.2600     3.7870 hc         1 GLE       0.044200
     42 H132         1.1980    -0.8130     3.1140 hc         1 GLE       0.044200
     43 H141         0.0050     1.0450     4.2660 hc         1 GLE       0.037700
     44 H142         1.5200     1.6280     4.9200 hc         1 GLE       0.037700
     45 H151         1.8250    -0.5300     6.1480 hc         1 GLE       0.035700
     46 H152         0.3130    -1.1200     5.4920 hc         1 GLE       0.035700
     47 H161        -0.9110     0.7450     6.6220 hc         1 GLE       0.035200
     48 H162         0.5990     1.3480     7.2690 hc         1 GLE       0.035200
     49 H171         0.9270    -0.8010     8.5110 hc         1 GLE       0.034700
     50 H172        -0.5840    -1.4060     7.8660 hc         1 GLE       0.034700
     51 H181        -1.8120     0.4660     8.9850 hc         1 GLE       0.035700
     52 H182        -0.3020     1.0760     9.6260 hc         1 GLE       0.035700
     53 H191         0.0280    -1.0670    10.8790 hc         1 GLE       0.034700
     54 H192        -1.4810    -1.6750    10.2370 hc         1 GLE       0.034700
     55 H201        -1.8020    -0.7630    12.5460 hc         1 GLE       0.027700
     56 H202        -1.2100     0.8090    12.0150 hc         1 GLE       0.027700
     57 H203        -2.7280     0.1810    11.3830 hc         1 GLE       0.027700
@<TRIPOS>BOND
     1     1     2 1   
     2     1     3 1   
     3     1    27 1   
     4     1    28 1   
     5     2    17 1   
     6     3     4 1   
     7     3     5 1   
     8     3    29 1   
     9     4    12 1   
    10     5     6 1   
    11     5    30 1   
    12     5    31 1   
    13     6     7 1   
    14     7     8 1   
    15     7    32 1   
    16     7    33 1   
    17     8     9 1   
    18     8    10 1   
    19     8    11 1   
    20    12    13 1   
    21    12    14 1   
    22    12    16 1   
    23    15    16 1   
    24    15    34 1   
    25    15    35 1   
    26    15    36 1   
    27    17    18 1   
    28    17    37 1   
    29    17    38 1   
    30    18    19 1   
    31    18    39 1   
    32    18    40 1   
    33    19    20 1   
    34    19    41 1   
    35    19    42 1   
    36    20    21 1   
    37    20    43 1   
    38    20    44 1   
    39    21    22 1   
    40    21    45 1   
    41    21    46 1   
    42    22    23 1   
    43    22    47 1   
    44    22    48 1   
    45    23    24 1   
    46    23    49 1   
    47    23    50 1   
    48    24    25 1   
    49    24    51 1   
    50    24    52 1   
    51    25    26 1   
    52    25    53 1   
    53    25    54 1   
    54    26    55 1   
    55    26    56 1   
    56    26    57 1   
@<TRIPOS>SUBSTRUCTURE
     1 GLE         1 TEMP              0 ****  ****    0 ROOT
