@<TRIPOS>MOLECULE
GLF
   23    23     1     0     0
SMALL
bcc


@<TRIPOS>ATOM
      1 C1           1.5860    -0.2440    -0.4880 c6         1 GLF       0.347400
      2 C2           0.5510    -0.5300    -1.5700 c6         1 GLF       0.056100
      3 C3          -0.7540     0.1890    -1.2580 c6         1 GLF       0.114100
      4 C4          -1.2070    -0.1650     0.1530 c6         1 GLF       0.124100
      5 C5          -0.0940     0.1420     1.1530 c6         1 GLF       0.144100
      6 C6          -0.4380    -0.3460     2.5440 c3         1 GLF       0.149400
      7 F1           1.9720     1.0900    -0.5750 f          1 GLF      -0.252300
      8 O2           0.9920    -0.1250    -2.8390 oh         1 GLF      -0.583800
      9 O3          -1.7830    -0.1960    -2.1370 oh         1 GLF      -0.605800
     10 O4          -2.3370     0.5780     0.5330 oh         1 GLF      -0.591800
     11 O5           1.1140    -0.5120     0.7700 os         1 GLF      -0.402600
     12 O6           0.5790     0.0560     3.4300 oh         1 GLF      -0.585800
     13 H1           2.4880    -0.8460    -0.6250 h2         1 GLF       0.085700
     14 H2           0.3620    -1.6120    -1.5390 h1         1 GLF       0.055700
     15 H3          -0.5880     1.2750    -1.3060 h1         1 GLF       0.070700
     16 H4          -1.4150    -1.2470     0.1860 h1         1 GLF       0.049700
     17 H5           0.0600     1.2290     1.1850 h1         1 GLF       0.080700
     18 H61         -0.5540    -1.4380     2.5210 h1         1 GLF       0.035200
     19 H62         -1.4080     0.0770     2.8240 h1         1 GLF       0.035200
     20 HO2          1.5830    -0.7960    -3.1940 ho         1 GLF       0.414000
     21 HO3         -1.5770     0.1400    -3.0150 ho         1 GLF       0.427000
     22 HO4         -3.0420     0.3980    -0.0980 ho         1 GLF       0.427000
     23 HO6          0.3230    -0.2130     4.3160 ho         1 GLF       0.405000
@<TRIPOS>BOND
     1     1     2 1   
     2     1     7 1   
     3     1    11 1   
     4     1    13 1   
     5     2     3 1   
     6     2     8 1   
     7     2    14 1   
     8     3     4 1   
     9     3     9 1   
    10     3    15 1   
    11     4     5 1   
    12     4    10 1   
    13     4    16 1   
    14     5     6 1   
    15     5    11 1   
    16     5    17 1   
    17     6    12 1   
    18     6    18 1   
    19     6    19 1   
    20     8    20 1   
    21     9    21 1   
    22    10    22 1   
    23    12    23 1   
@<TRIPOS>SUBSTRUCTURE
     1 GLF         1 TEMP              0 ****  ****    0 ROOT
