@<TRIPOS>MOLECULE
GLF
   23    23     1     0     0
SMALL
No Charge or Current Charge


@<TRIPOS>ATOM
      1 C1           1.6090    -0.2150    -0.5460 c6         1 GLF       0.389300
      2 C2           0.5160    -0.5260    -1.6310 c6         1 GLF       0.079300
      3 C3          -0.8070     0.2010    -1.2540 c6         1 GLF       0.137300
      4 C4          -1.2480    -0.1770     0.1900 c6         1 GLF       0.147300
      5 C5          -0.0890     0.1430     1.1870 c6         1 GLF       0.167300
      6 C6          -0.4310    -0.2880     2.6510 c3         1 GLF       0.172600
      7 F1           1.9130     1.1650    -0.5570 f          1 GLF      -0.271000
      8 O2           0.9130    -0.1610    -2.9800 oh         1 GLF      -0.706000
      9 O3          -1.8370    -0.1290    -2.2030 oh         1 GLF      -0.668000
     10 O4          -2.4620     0.5220     0.5220 oh         1 GLF      -0.714000
     11 O5           1.1230    -0.5520     0.7760 os         1 GLF      -0.449000
     12 O6           0.6480    -0.0590     3.5820 oh         1 GLF      -0.708000
     13 H1           2.5360    -0.7680    -0.7600 h2         1 GLF       0.085700
     14 H2           0.3250    -1.6090    -1.5900 h1         1 GLF       0.055700
     15 H3          -0.6160     1.2860    -1.2800 h1         1 GLF       0.070700
     16 H4          -1.4300    -1.2630     0.2190 h1         1 GLF       0.049700
     17 H5           0.0980     1.2260     1.1910 h1         1 GLF       0.080700
     18 H61         -0.6960    -1.3540     2.6390 h1         1 GLF       0.035200
     19 H62         -1.3230     0.2650     2.9740 h1         1 GLF       0.035200
     20 HO2          1.6860    -0.7210    -3.2320 ho         1 GLF       0.513000
     21 HO3         -1.3720    -0.1560    -3.0720 ho         1 GLF       0.466000
     22 HO4         -3.0010     0.4940    -0.3070 ho         1 GLF       0.526000
     23 HO6          0.3580    -0.4170     4.4530 ho         1 GLF       0.504000
@<TRIPOS>BOND
     1     1     2 1   
     2     1     7 1   
     3     1    11 1   
     4     1    13 1   
     5     2     3 1   
     6     2     8 1   
     7     2    14 1   
     8     3     4 1   
     9     3     9 1   
    10     3    15 1   
    11     4     5 1   
    12     4    10 1   
    13     4    16 1   
    14     5     6 1   
    15     5    11 1   
    16     5    17 1   
    17     6    12 1   
    18     6    18 1   
    19     6    19 1   
    20     8    20 1   
    21     9    21 1   
    22    10    22 1   
    23    12    23 1   
@<TRIPOS>SUBSTRUCTURE
     1 GLF         1 TEMP              0 ****  ****    0 ROOT
