@<TRIPOS>MOLECULE
GLG
   27    27     1     0     0
SMALL
abcg2


@<TRIPOS>ATOM
      1 C1          -1.1100    -0.6900     0.4610 c6         1 GLG       0.050300
      2 C2           0.0190    -0.7990     1.4960 c6         1 GLG       0.131300
      3 C3           1.1290     0.1910     1.1700 c6         1 GLG       0.134300
      4 C4           1.6070    -0.0380    -0.2600 c6         1 GLG       0.149300
      5 C5           0.4170     0.0200    -1.2150 c6         1 GLG       0.157300
      6 C6           0.7890    -0.3090    -2.6440 c3         1 GLG       0.170600
      7 O2          -0.3930    -0.6100     2.8220 oh         1 GLG      -0.693000
      8 O3           2.2450     0.0200     2.0110 oh         1 GLG      -0.672000
      9 O4           2.5310     0.9410    -0.6640 oh         1 GLG      -0.718000
     10 O5          -0.5740    -0.9160    -0.8210 os         1 GLG      -0.441000
     11 O6          -0.3510    -0.1150    -3.4490 oh         1 GLG      -0.723000
     12 C7          -1.9600     0.5910     0.4970 c          1 GLG       0.576100
     13 O7          -2.0920     1.2740     1.4990 o          1 GLG      -0.586100
     14 H1          -1.8130    -1.5130     0.6380 h1         1 GLG       0.090700
     15 H2           0.4350    -1.8090     1.3670 h1         1 GLG       0.046700
     16 H3           0.7380     1.2180     1.2490 h1         1 GLG       0.071700
     17 H4           2.0480    -1.0460    -0.3140 h1         1 GLG       0.049700
     18 H5           0.0130     1.0440    -1.1920 h1         1 GLG       0.067700
     19 H61          1.6170     0.3390    -2.9500 h1         1 GLG       0.039700
     20 H62          1.1530    -1.3450    -2.6920 h1         1 GLG       0.039700
     21 HO2         -0.7470    -1.4400     3.1560 ho         1 GLG       0.509000
     22 HO3          1.9840     0.2420     2.9110 ho         1 GLG       0.469000
     23 HO4          3.2850     0.9060    -0.0670 ho         1 GLG       0.527000
     24 HO6         -0.1010    -0.2700    -4.3640 ho         1 GLG       0.508000
     25 HN1         -3.1760     1.6660    -0.7380 hn         1 GLG       0.324500
     26 HN2         -2.4190     0.3130    -1.4900 hn         1 GLG       0.324500
     27 N           -2.5980     0.8460    -0.6550 nt         1 GLG      -0.604000
@<TRIPOS>BOND
     1     1     2 1   
     2     1    10 1   
     3     1    12 1   
     4     1    14 1   
     5     2     3 1   
     6     2     7 1   
     7     2    15 1   
     8     3     4 1   
     9     3     8 1   
    10     3    16 1   
    11     4     5 1   
    12     4     9 1   
    13     4    17 1   
    14     5     6 1   
    15     5    10 1   
    16     5    18 1   
    17     6    11 1   
    18     6    19 1   
    19     6    20 1   
    20     7    21 1   
    21     8    22 1   
    22     9    23 1   
    23    11    24 1   
    24    12    13 2   
    25    12    27 1   
    26    25    27 1   
    27    26    27 1   
@<TRIPOS>SUBSTRUCTURE
     1 GLG         1 TEMP              0 ****  ****    0 ROOT
