@<TRIPOS>MOLECULE
GLG
   27    27     1     0     0
SMALL
No Charge or Current Charge


@<TRIPOS>ATOM
      1 C1          -1.2550    -0.6110    -0.3780 c6         1 GLG       0.050300
      2 C2          -0.5070    -1.1260     0.8960 c6         1 GLG       0.131300
      3 C3           0.6930    -0.1780     1.1880 c6         1 GLG       0.134300
      4 C4           1.6290    -0.1130    -0.0580 c6         1 GLG       0.149300
      5 C5           0.8130     0.3110    -1.3230 c6         1 GLG       0.157300
      6 C6           1.6830     0.2780    -2.6240 c3         1 GLG       0.170600
      7 O2          -1.3580    -1.2490     2.0550 oh         1 GLG      -0.693000
      8 O3           1.4230    -0.6300     2.3430 oh         1 GLG      -0.672000
      9 O4           2.7240     0.7840     0.2090 oh         1 GLG      -0.718000
     10 O5          -0.3270    -0.5820    -1.5040 os         1 GLG      -0.441000
     11 O6           0.9480     0.6140    -3.8200 oh         1 GLG      -0.723000
     12 C7          -2.0950     0.7100    -0.2390 c          1 GLG       0.576100
     13 O7          -2.2670     1.4930    -1.1610 o          1 GLG      -0.586100
     14 H1          -2.0150    -1.3680    -0.6150 h1         1 GLG       0.090700
     15 H2          -0.0900    -2.1150     0.6520 h1         1 GLG       0.046700
     16 H3           0.2940     0.8320     1.3730 h1         1 GLG       0.071700
     17 H4           2.0220    -1.1250    -0.2380 h1         1 GLG       0.049700
     18 H5           0.4460     1.3390    -1.1890 h1         1 GLG       0.067700
     19 H61          2.5210     0.9770    -2.4930 h1         1 GLG       0.039700
     20 H62          2.1140    -0.7290    -2.7170 h1         1 GLG       0.039700
     21 HO2         -1.7120    -2.1710     2.0630 ho         1 GLG       0.509000
     22 HO3          0.7310    -0.9280     2.9800 ho         1 GLG       0.469000
     23 HO4          2.9730     0.6000     1.1490 ho         1 GLG       0.527000
     24 HO6          1.5670     0.5010    -4.5790 ho         1 GLG       0.508000
     25 HN1         -3.1760     1.8380     1.0880 hn         1 GLG       0.324500
     26 HN2         -2.4710     0.3620     1.7400 hn         1 GLG       0.324500
     27 N           -2.6350     0.9950     0.9660 nt         1 GLG      -0.604000
@<TRIPOS>BOND
     1     1     2 1   
     2     1    10 1   
     3     1    12 1   
     4     1    14 1   
     5     2     3 1   
     6     2     7 1   
     7     2    15 1   
     8     3     4 1   
     9     3     8 1   
    10     3    16 1   
    11     4     5 1   
    12     4     9 1   
    13     4    17 1   
    14     5     6 1   
    15     5    10 1   
    16     5    18 1   
    17     6    11 1   
    18     6    19 1   
    19     6    20 1   
    20     7    21 1   
    21     8    22 1   
    22     9    23 1   
    23    11    24 1   
    24    12    13 2   
    25    12    27 1   
    26    25    27 1   
    27    26    27 1   
@<TRIPOS>SUBSTRUCTURE
     1 GLG         1 TEMP              0 ****  ****    0 ROOT
