@<TRIPOS>MOLECULE
GLJ
   20    19     1     0     0
SMALL
No Charge or Current Charge


@<TRIPOS>ATOM
      1 N           -8.2360    22.0390    36.1610 n8         1 GLJ      -0.885800
      2 CA          -7.5240    21.5220    34.9330 c3         1 GLJ       0.026500
      3 C           -8.4360    20.7300    33.8840 c          1 GLJ       0.938600
      4 O           -9.1370    21.3840    33.1170 o          1 GLJ      -0.827800
      5 CB          -6.2470    20.7420    35.3810 c3         1 GLJ      -0.054400
      6 CG          -5.1080    20.6230    34.3270 c3         1 GLJ      -0.093400
      7 CD          -5.4560    19.8920    33.0080 c3         1 GLJ       0.360900
      8 OE1         -5.9730    18.6090    33.2680 oh         1 GLJ      -0.662300
      9 H           -7.5930    22.6240    36.7050 hn         1 GLJ       0.325800
     10 HA          -7.1720    22.4230    34.4130 h1         1 GLJ      -0.003300
     11 HB2         -5.8140    21.2520    36.2510 hc         1 GLJ       0.038200
     12 HB3         -6.5290    19.7440    35.7370 hc         1 GLJ       0.038200
     13 HG2         -4.7540    21.6320    34.0810 hc         1 GLJ       0.030200
     14 HG3         -4.2620    20.1100    34.8020 hc         1 GLJ       0.030200
     15 HD2         -6.1880    20.4690    32.4310 h2         1 GLJ       0.005700
     16 OE2         -4.2990    19.7060    32.2240 oh         1 GLJ      -0.662300
     17 HE1         -6.9320    18.7780    33.4840 ho         1 GLJ       0.449000
     18 H2          -8.9840    22.6780    35.8710 hn         1 GLJ       0.325800
     19 OXT         -8.3950    19.5020    33.8470 o          1 GLJ      -0.827800
     20 HE2         -4.6240    19.5080    31.3210 ho         1 GLJ       0.449000
@<TRIPOS>BOND
     1     1     2 1   
     2     1     9 1   
     3     1    18 1   
     4     2     3 1   
     5     2     5 1   
     6     2    10 1   
     7     3     4 1   
     8     3    19 1   
     9     5     6 1   
    10     5    11 1   
    11     5    12 1   
    12     6     7 1   
    13     6    13 1   
    14     6    14 1   
    15     7     8 1   
    16     7    15 1   
    17     7    16 1   
    18     8    17 1   
    19    16    20 1   
@<TRIPOS>SUBSTRUCTURE
     1 GLJ         1 TEMP              0 ****  ****    0 ROOT
