@<TRIPOS>MOLECULE
GLJ
   20    19     1     0     0
SMALL
bcc


@<TRIPOS>ATOM
      1 N           -8.0310    22.2920    35.8780 n8         1 GLJ      -0.885800
      2 CA          -7.5170    21.4560    34.7990 c3         1 GLJ       0.026500
      3 C           -8.6850    20.6570    34.1670 c          1 GLJ       0.938600
      4 O           -9.8310    21.0950    34.3390 o          1 GLJ      -0.827800
      5 CB          -6.3590    20.5940    35.3410 c3         1 GLJ      -0.054400
      6 CG          -5.1060    20.5280    34.4680 c3         1 GLJ      -0.093400
      7 CD          -5.3440    19.9790    33.0710 c3         1 GLJ       0.360900
      8 OE1         -5.9860    18.7430    33.0980 oh         1 GLJ      -0.662300
      9 H           -7.3490    23.0070    36.0970 hn         1 GLJ       0.325800
     10 HA          -7.1110    22.0700    33.9710 h1         1 GLJ      -0.003300
     11 HB2         -6.0510    21.0300    36.2940 hc         1 GLJ       0.038200
     12 HB3         -6.7040    19.5880    35.5920 hc         1 GLJ       0.038200
     13 HG2         -4.6800    21.5340    34.3870 hc         1 GLJ       0.030200
     14 HG3         -4.3600    19.9040    34.9700 hc         1 GLJ       0.030200
     15 HD2         -5.9670    20.7010    32.5110 h2         1 GLJ       0.005700
     16 OE2         -4.1080    19.8600    32.4310 oh         1 GLJ      -0.662300
     17 HE1         -6.9430    18.9700    33.2620 ho         1 GLJ       0.449000
     18 H2          -8.8640    22.7680    35.5590 hn         1 GLJ       0.325800
     19 OXT         -8.4010    19.6420    33.4770 o          1 GLJ      -0.827800
     20 HE2         -4.2670    19.5490    31.5330 ho         1 GLJ       0.449000
@<TRIPOS>BOND
     1     1     2 1   
     2     1     9 1   
     3     1    18 1   
     4     2     3 1   
     5     2     5 1   
     6     2    10 1   
     7     3     4 1   
     8     3    19 1   
     9     5     6 1   
    10     5    11 1   
    11     5    12 1   
    12     6     7 1   
    13     6    13 1   
    14     6    14 1   
    15     7     8 1   
    16     7    15 1   
    17     7    16 1   
    18     8    17 1   
    19    16    20 1   
@<TRIPOS>SUBSTRUCTURE
     1 GLJ         1 TEMP              0 ****  ****    0 ROOT
