@<TRIPOS>MOLECULE
GLK
   20    19     1     0     0
SMALL
No Charge or Current Charge


@<TRIPOS>ATOM
      1 N            1.2570     1.8220    -0.4650 n8         1 GLK      -0.880800
      2 CA           1.1550     0.4950     0.2050 c3         1 GLK       0.127500
      3 C            2.3810    -0.4500    -0.1120 c3         1 GLK       0.334900
      4 CB          -0.2110    -0.1570    -0.1560 c3         1 GLK      -0.092400
      5 CG          -1.4630     0.6760     0.2490 c3         1 GLK      -0.210400
      6 CD          -2.7540    -0.1280    -0.0090 c          1 GLK       0.928600
      7 OE1         -3.2820    -0.0470    -1.1100 o          1 GLK      -0.843300
      8 OE2         -3.1730    -0.8600     0.8790 o          1 GLK      -0.843300
      9 O            3.6150     0.1540     0.2470 oh         1 GLK      -0.615800
     10 H            1.3020     1.6830    -1.4780 hn         1 GLK       0.336300
     11 H2           0.3770     2.3250    -0.3190 hn         1 GLK       0.336300
     12 HA           1.1530     0.6840     1.2880 h1         1 GLK       0.053700
     13 HB2         -0.2440    -0.3630    -1.2330 hc         1 GLK       0.052700
     14 HB3         -0.2780    -1.1320     0.3440 hc         1 GLK       0.052700
     15 HG2         -1.3520     0.8810     1.3210 hc         1 GLK       0.014200
     16 HG3         -1.4530     1.5780    -0.3760 hc         1 GLK       0.014200
     17 H1           4.2940    -0.2710    -0.3160 ho         1 GLK       0.399000
     18 OXT          2.3200    -1.6560     0.6320 oh         1 GLK      -0.615800
     19 H10          2.3970    -0.6890    -1.1840 h2         1 GLK       0.052700
     20 HXT          2.0610    -1.4000     1.5400 ho         1 GLK       0.399000
@<TRIPOS>BOND
     1     1     2 1   
     2     1    10 1   
     3     1    11 1   
     4     2     3 1   
     5     2     4 1   
     6     2    12 1   
     7     3     9 1   
     8     3    18 1   
     9     3    19 1   
    10     4     5 1   
    11     4    13 1   
    12     4    14 1   
    13     5     6 1   
    14     5    15 1   
    15     5    16 1   
    16     6     7 1   
    17     6     8 1   
    18     9    17 1   
    19    18    20 1   
@<TRIPOS>SUBSTRUCTURE
     1 GLK         1 TEMP              0 ****  ****    0 ROOT
