@<TRIPOS>MOLECULE
GLK
   20    19     1     0     0
SMALL
bcc


@<TRIPOS>ATOM
      1 N            1.2730     1.8060    -0.4150 n8         1 GLK      -0.880800
      2 CA           1.1390     0.4810     0.1780 c3         1 GLK       0.127500
      3 C            2.3490    -0.3660    -0.2230 c3         1 GLK       0.334900
      4 CB          -0.1770    -0.2220    -0.1760 c3         1 GLK      -0.092400
      5 CG          -1.3990     0.5060     0.3600 c3         1 GLK      -0.210400
      6 CD          -2.7610    -0.1120    -0.0050 c          1 GLK       0.928600
      7 OE1         -2.7800    -1.0170    -0.8620 o          1 GLK      -0.843300
      8 OE2         -3.7530     0.3680     0.5840 o          1 GLK      -0.843300
      9 O            3.5040     0.3000     0.1930 oh         1 GLK      -0.615800
     10 H            1.0580     1.7470    -1.4060 hn         1 GLK       0.336300
     11 H2           0.5690     2.4200    -0.0270 hn         1 GLK       0.336300
     12 HA           1.1840     0.6090     1.2690 h1         1 GLK       0.053700
     13 HB2         -0.2450    -0.3110    -1.2650 hc         1 GLK       0.052700
     14 HB3         -0.1740    -1.2430     0.2110 hc         1 GLK       0.052700
     15 HG2         -1.3330     0.5810     1.4510 hc         1 GLK       0.014200
     16 HG3         -1.4090     1.5440     0.0060 hc         1 GLK       0.014200
     17 H1           4.2670    -0.1670    -0.1620 ho         1 GLK       0.399000
     18 OXT          2.2910    -1.6650     0.2980 oh         1 GLK      -0.615800
     19 H10          2.3490    -0.5060    -1.3130 h2         1 GLK       0.052700
     20 HXT          2.1500    -1.6090     1.2510 ho         1 GLK       0.399000
@<TRIPOS>BOND
     1     1     2 1   
     2     1    10 1   
     3     1    11 1   
     4     2     3 1   
     5     2     4 1   
     6     2    12 1   
     7     3     9 1   
     8     3    18 1   
     9     3    19 1   
    10     4     5 1   
    11     4    13 1   
    12     4    14 1   
    13     5     6 1   
    14     5    15 1   
    15     5    16 1   
    16     6     7 1   
    17     6     8 1   
    18     9    17 1   
    19    18    20 1   
@<TRIPOS>SUBSTRUCTURE
     1 GLK         1 TEMP              0 ****  ****    0 ROOT
