@<TRIPOS>MOLECULE
GLL
   16    17     1     0     0
SMALL
bcc


@<TRIPOS>ATOM
      1 H1          -0.0310     0.2370    -1.8870 c          1 GLL       0.402500
      2 H1          -0.0490     0.8450    -2.9400 o          1 GLL      -0.353000
      3 H1           1.0570     0.0440    -1.0800 n7         1 GLL      -0.397500
      4 H2          -1.0890    -0.3960    -1.3000 n7         1 GLL      -0.397500
      5 H2           0.7740    -0.8710     0.0020 c5         1 GLL       0.125500
      6 H3          -0.7740    -0.8820     0.0080 c5         1 GLL       0.125500
      7 H3           1.0830    -0.3840     1.3110 n7         1 GLL      -0.397500
      8 H4          -1.0690     0.0240     1.0930 n7         1 GLL      -0.397500
      9 H4           0.0150     0.2350     1.8990 c          1 GLL       0.402500
     10 H2           0.0250     0.8440     2.9510 o          1 GLL      -0.353000
     11 HN1          1.9810     0.0970    -1.4770 ha         1 GLL       0.249000
     12 HN2         -2.0350    -0.1880    -1.5760 ha         1 GLL       0.249000
     13 H2           1.2200    -1.8500    -0.1740 ha         1 GLL       0.122000
     14 H3          -1.2050    -1.8680     0.1810 ha         1 GLL       0.122000
     15 H1           2.0260    -0.1560     1.5840 ha         1 GLL       0.249000
     16 H4          -1.9960     0.0670     1.4880 ha         1 GLL       0.249000
@<TRIPOS>BOND
     1     1     2 2   
     2     1     3 1   
     3     1     4 1   
     4     3     5 1   
     5     3    11 1   
     6     4     6 1   
     7     4    12 1   
     8     5     6 1   
     9     5     7 1   
    10     5    13 1   
    11     6     8 1   
    12     6    14 1   
    13     7     9 1   
    14     7    15 1   
    15     8     9 1   
    16     8    16 1   
    17     9    10 2   
@<TRIPOS>SUBSTRUCTURE
     1 GLL         1 TEMP              0 ****  ****    0 ROOT
