@<TRIPOS>MOLECULE
GLL
   16    17     1     0     0
SMALL
abcg2


@<TRIPOS>ATOM
      1 C1          -0.0310     0.2370    -1.8870 c          1 GLL       0.602500
      2 O1          -0.0490     0.8450    -2.9400 o          1 GLL      -0.553000
      3 N1           1.0570     0.0440    -1.0800 ns         1 GLL      -0.521400
      4 N2          -1.0890    -0.3960    -1.3000 ns         1 GLL      -0.521400
      5 C2           0.7740    -0.8710     0.0020 c5         1 GLL       0.239600
      6 C3          -0.7740    -0.8820     0.0080 c5         1 GLL       0.239600
      7 N3           1.0830    -0.3840     1.3110 ns         1 GLL      -0.521400
      8 N4          -1.0690     0.0240     1.0930 ns         1 GLL      -0.521400
      9 C4           0.0150     0.2350     1.8990 c          1 GLL       0.602500
     10 O2           0.0250     0.8440     2.9510 o          1 GLL      -0.553000
     11 HN1          1.9810     0.0970    -1.4770 hn         1 GLL       0.335500
     12 HN2         -2.0350    -0.1880    -1.5760 hn         1 GLL       0.335500
     13 H2           1.2200    -1.8500    -0.1740 h2         1 GLL       0.082700
     14 H3          -1.2050    -1.8680     0.1810 h2         1 GLL       0.082700
     15 H1           2.0260    -0.1560     1.5840 hn         1 GLL       0.335500
     16 H4          -1.9960     0.0670     1.4880 hn         1 GLL       0.335500
@<TRIPOS>BOND
     1     1     2 2   
     2     1     3 1   
     3     1     4 1   
     4     3     5 1   
     5     3    11 1   
     6     4     6 1   
     7     4    12 1   
     8     5     6 1   
     9     5     7 1   
    10     5    13 1   
    11     6     8 1   
    12     6    14 1   
    13     7     9 1   
    14     7    15 1   
    15     8     9 1   
    16     8    16 1   
    17     9    10 2   
@<TRIPOS>SUBSTRUCTURE
     1 GLL         1 TEMP              0 ****  ****    0 ROOT
