@<TRIPOS>MOLECULE
GLL
   16    17     1     0     0
SMALL
No Charge or Current Charge


@<TRIPOS>ATOM
      1 C1          -0.0100     0.2370    -1.8450 c          1 GLL       0.602500
      2 O1          -0.0160     0.9130    -2.8540 o          1 GLL      -0.553000
      3 N1           1.0970    -0.1990    -1.2060 ns         1 GLL      -0.521400
      4 N2          -1.1090    -0.2150    -1.2040 ns         1 GLL      -0.521400
      5 C2           0.7990    -0.9390     0.0040 c5         1 GLL       0.239600
      6 C3          -0.7970    -0.9510     0.0060 c5         1 GLL       0.239600
      7 N3           1.1000    -0.2000     1.2140 ns         1 GLL      -0.521400
      8 N4          -1.1060    -0.2170     1.2170 ns         1 GLL      -0.521400
      9 C4          -0.0060     0.2350     1.8560 c          1 GLL       0.602500
     10 O2          -0.0100     0.9100     2.8660 o          1 GLL      -0.553000
     11 HN1          2.0130     0.0550    -1.5540 hn         1 GLL       0.335500
     12 HN2         -2.0290     0.0250    -1.5500 hn         1 GLL       0.335500
     13 H2           1.2110    -1.9570     0.0030 h2         1 GLL       0.082700
     14 H3          -1.1940    -1.9750     0.0060 h2         1 GLL       0.082700
     15 H1           2.0160     0.0540     1.5600 hn         1 GLL       0.335500
     16 H4          -2.0250     0.0230     1.5650 hn         1 GLL       0.335500
@<TRIPOS>BOND
     1     1     2 2   
     2     1     3 1   
     3     1     4 1   
     4     3     5 1   
     5     3    11 1   
     6     4     6 1   
     7     4    12 1   
     8     5     6 1   
     9     5     7 1   
    10     5    13 1   
    11     6     8 1   
    12     6    14 1   
    13     7     9 1   
    14     7    15 1   
    15     8     9 1   
    16     8    16 1   
    17     9    10 2   
@<TRIPOS>SUBSTRUCTURE
     1 GLL         1 TEMP              0 ****  ****    0 ROOT
