@<TRIPOS>MOLECULE
GLO
   24    23     1     0     0
SMALL
No Charge or Current Charge


@<TRIPOS>ATOM
      1 C1          -0.4650     0.1480    -3.3160 c          1 GLO       0.546900
      2 C2           0.3910     0.3200    -2.0240 c3         1 GLO       0.021300
      3 C3          -0.3010    -0.2320    -0.7360 c3         1 GLO       0.123300
      4 C4           0.3800     0.3040     0.5640 c3         1 GLO       0.105300
      5 C5          -0.3900    -0.0480     1.8770 c3         1 GLO       0.135300
      6 C6           0.3080     0.4860     3.1570 c3         1 GLO       0.126600
      7 O1          -1.5870    -0.3510    -3.3560 o          1 GLO      -0.496100
      8 O2           1.7350    -0.2380    -2.1560 oh         1 GLO      -0.693000
      9 O3          -0.2560    -1.6760    -0.7390 oh         1 GLO      -0.703000
     10 O4           1.7270    -0.2100     0.6070 oh         1 GLO      -0.710000
     11 O5          -1.7100     0.5180     1.8530 oh         1 GLO      -0.685000
     12 O6          -0.5740     0.3300     4.2870 oh         1 GLO      -0.704000
     13 H1           0.0050     0.5520    -4.2400 h4         1 GLO      -0.001800
     14 H2           0.4690     1.4100    -1.9060 h1         1 GLO       0.093700
     15 H3          -1.3440     0.1200    -0.7360 h1         1 GLO       0.112700
     16 H4           0.4100     1.4010     0.4930 h1         1 GLO       0.073700
     17 H5          -0.4510    -1.1420     1.9630 h1         1 GLO       0.092700
     18 H61          0.5670     1.5440     3.0190 h1         1 GLO       0.025700
     19 H62          1.2410    -0.0700     3.3200 h1         1 GLO       0.025700
     20 HO2          1.6430    -1.1570    -2.5110 ho         1 GLO       0.506000
     21 HO3          0.5060    -1.9180    -0.1640 ho         1 GLO       0.497000
     22 HO4          2.0540    -0.1440    -0.3310 ho         1 GLO       0.504000
     23 HO5         -1.9210     0.6250     2.8140 ho         1 GLO       0.499000
     24 HO6         -0.0610     0.5830     5.0920 ho         1 GLO       0.506000
@<TRIPOS>BOND
     1     1     2 1   
     2     1     7 2   
     3     1    13 1   
     4     2     3 1   
     5     2     8 1   
     6     2    14 1   
     7     3     4 1   
     8     3     9 1   
     9     3    15 1   
    10     4     5 1   
    11     4    10 1   
    12     4    16 1   
    13     5     6 1   
    14     5    11 1   
    15     5    17 1   
    16     6    12 1   
    17     6    18 1   
    18     6    19 1   
    19     8    20 1   
    20     9    21 1   
    21    10    22 1   
    22    11    23 1   
    23    12    24 1   
@<TRIPOS>SUBSTRUCTURE
     1 GLO         1 TEMP              0 ****  ****    0 ROOT
