@<TRIPOS>MOLECULE
GLO
   24    23     1     0     0
SMALL
bcc


@<TRIPOS>ATOM
      1 C1          -0.6590     0.0030    -3.1630 c          1 GLO       0.546900
      2 C2           0.2080     0.3990    -1.9780 c3         1 GLO      -0.001900
      3 C3          -0.2660    -0.2810    -0.6890 c3         1 GLO       0.100100
      4 C4           0.4530     0.2530     0.5590 c3         1 GLO       0.082100
      5 C5          -0.3210    -0.0600     1.8530 c3         1 GLO       0.112100
      6 C6           0.3600     0.5700     3.0610 c3         1 GLO       0.103400
      7 O1          -1.8510    -0.1570    -3.1110 o          1 GLO      -0.496100
      8 O2           1.5630     0.2260    -2.2920 oh         1 GLO      -0.570800
      9 O3          -0.1800    -1.6840    -0.7850 oh         1 GLO      -0.580800
     10 O4           1.7790    -0.2300     0.6280 oh         1 GLO      -0.587800
     11 O5          -1.6680     0.3340     1.7600 oh         1 GLO      -0.562800
     12 O6          -0.3290     0.1740     4.2220 oh         1 GLO      -0.581800
     13 H1          -0.1040    -0.1030    -4.1140 h4         1 GLO      -0.001800
     14 H2           0.0590     1.4790    -1.8540 h1         1 GLO       0.093700
     15 H3          -1.3260    -0.0380    -0.5920 h1         1 GLO       0.112700
     16 H4           0.5190     1.3450     0.4630 h1         1 GLO       0.073700
     17 H5          -0.3410    -1.1490     1.9890 h1         1 GLO       0.092700
     18 H61          0.3540     1.6650     2.9380 h1         1 GLO       0.025700
     19 H62          1.4120     0.2660     3.0950 h1         1 GLO       0.025700
     20 HO2          1.7590    -0.7130    -2.3720 ho         1 GLO       0.407000
     21 HO3          0.7330    -1.9530    -0.6350 ho         1 GLO       0.398000
     22 HO4          1.8040    -1.0390     1.1500 ho         1 GLO       0.405000
     23 HO5         -1.7090     1.2960     1.7170 ho         1 GLO       0.400000
     24 HO6          0.1270     0.5500     4.9800 ho         1 GLO       0.407000
@<TRIPOS>BOND
     1     1     2 1   
     2     1     7 2   
     3     1    13 1   
     4     2     3 1   
     5     2     8 1   
     6     2    14 1   
     7     3     4 1   
     8     3     9 1   
     9     3    15 1   
    10     4     5 1   
    11     4    10 1   
    12     4    16 1   
    13     5     6 1   
    14     5    11 1   
    15     5    17 1   
    16     6    12 1   
    17     6    18 1   
    18     6    19 1   
    19     8    20 1   
    20     9    21 1   
    21    10    22 1   
    22    11    23 1   
    23    12    24 1   
@<TRIPOS>SUBSTRUCTURE
     1 GLO         1 TEMP              0 ****  ****    0 ROOT
