@<TRIPOS>MOLECULE
GLR
   19    18     1     0     0
SMALL
bcc


@<TRIPOS>ATOM
      1 O1B          3.2090    -1.1210    -0.9890 o          1 GLR      -0.839300
      2 O1A          3.8770     0.3540     0.5530 o          1 GLR      -0.839300
      3 C1           3.0590    -0.1250    -0.2660 c          1 GLR       0.909600
      4 C2           1.7240     0.6470    -0.3700 c3         1 GLR      -0.039900
      5 O2           1.7540     1.7380     0.5180 oh         1 GLR      -0.652800
      6 C3           0.5420    -0.2660    -0.0530 c3         1 GLR       0.155100
      7 O3           0.6580    -0.7900     1.2540 oh         1 GLR      -0.595800
      8 C4          -0.7860     0.4550    -0.2420 c3         1 GLR      -0.213400
      9 O5          -1.9130    -1.6440    -0.1290 o          1 GLR      -0.560100
     10 C5          -1.9960    -0.4390    -0.1610 c          1 GLR       0.431100
     11 C6          -3.3930     0.2540    -0.1600 c          1 GLR       0.848600
     12 O6A         -4.3690    -0.5090    -0.1740 o          1 GLR      -0.826300
     13 O6B         -3.3770     1.4970    -0.1510 o          1 GLR      -0.826300
     14 H21          1.6180     0.9980    -1.4070 h1         1 GLR       0.027700
     15 HO21         2.6380     1.6400     0.9250 ho         1 GLR       0.426000
     16 H31          0.5900    -1.1180    -0.7350 h1         1 GLR       0.083700
     17 HO31         0.7860    -0.0400     1.8470 ho         1 GLR       0.387000
     18 H41         -0.8940     1.2730     0.4740 hc         1 GLR       0.061700
     19 H42         -0.8160     0.9420    -1.2250 hc         1 GLR       0.061700
@<TRIPOS>BOND
     1     1     3 1   
     2     2     3 1   
     3     3     4 1   
     4     4     5 1   
     5     4     6 1   
     6     4    14 1   
     7     5    15 1   
     8     6     7 1   
     9     6     8 1   
    10     6    16 1   
    11     7    17 1   
    12     8    10 1   
    13     8    18 1   
    14     8    19 1   
    15     9    10 2   
    16    10    11 1   
    17    11    12 1   
    18    11    13 1   
@<TRIPOS>SUBSTRUCTURE
     1 GLR         1 TEMP              0 ****  ****    0 ROOT
