@<TRIPOS>MOLECULE
GLR
   19    18     1     0     0
SMALL
No Charge or Current Charge


@<TRIPOS>ATOM
      1 O1B          3.1640    -1.3320    -0.6400 o          1 GLR      -0.734000
      2 O1A          3.7880     0.0270     0.9120 o          1 GLR      -0.734000
      3 C1           2.9970    -0.3350     0.0490 c          1 GLR       0.699000
      4 C2           1.7630     0.5920    -0.2420 c3         1 GLR      -0.016700
      5 O2           1.7490     1.7840     0.6040 oh         1 GLR      -0.715000
      6 C3           0.4190    -0.1820    -0.1130 c3         1 GLR       0.178300
      7 O3           0.1170    -0.3220     1.2750 oh         1 GLR      -0.658000
      8 C4          -0.7580     0.5320    -0.8070 c3         1 GLR      -0.213400
      9 O5          -2.2090    -1.2440    -1.5420 o          1 GLR      -0.560100
     10 C5          -2.0340    -0.3260    -0.7340 c          1 GLR       0.431100
     11 C6          -3.1170     0.0300     0.4220 c          1 GLR       0.638000
     12 O6A         -3.7310    -0.8920     0.9560 o          1 GLR      -0.721000
     13 O6B         -3.3390     1.2110     0.6810 o          1 GLR      -0.721000
     14 H21          1.8710     0.8990    -1.2910 h1         1 GLR       0.027700
     15 HO21         2.6320     1.7860     1.0510 ho         1 GLR       0.465000
     16 H31          0.5380    -1.1710    -0.5820 h1         1 GLR       0.083700
     17 HO31         0.4800     0.5040     1.6700 ho         1 GLR       0.426000
     18 H41         -0.9220     1.4910    -0.3030 hc         1 GLR       0.061700
     19 H42         -0.4970     0.6950    -1.8590 hc         1 GLR       0.061700
@<TRIPOS>BOND
     1     1     3 1   
     2     2     3 1   
     3     3     4 1   
     4     4     5 1   
     5     4     6 1   
     6     4    14 1   
     7     5    15 1   
     8     6     7 1   
     9     6     8 1   
    10     6    16 1   
    11     7    17 1   
    12     8    10 1   
    13     8    18 1   
    14     8    19 1   
    15     9    10 2   
    16    10    11 1   
    17    11    12 1   
    18    11    13 1   
@<TRIPOS>SUBSTRUCTURE
     1 GLR         1 TEMP              0 ****  ****    0 ROOT
