@<TRIPOS>MOLECULE
GLS
   29    30     1     0     0
SMALL
bcc


@<TRIPOS>ATOM
      1 C1           0.0310    -0.2270    -0.7120 c5         1 GLS       0.250200
      2 C2          -1.3650    -0.4920    -0.1430 c6         1 GLS       0.127100
      3 O2          -2.2700    -0.0150    -1.0990 oh         1 GLS      -0.588800
      4 C3          -1.5490     0.1470     1.2240 c6         1 GLS       0.109100
      5 O3          -2.8070    -0.2740     1.6950 oh         1 GLS      -0.605800
      6 C4          -0.4190    -0.2840     2.1470 c6         1 GLS       0.084100
      7 O4          -0.5980     0.3780     3.3780 oh         1 GLS      -0.592800
      8 C5           0.9270     0.0840     1.5160 c6         1 GLS       0.128100
      9 C6           2.0900    -0.4490     2.3220 c3         1 GLS       0.147400
     10 O6           3.2920     0.0230     1.7640 oh         1 GLS      -0.576800
     11 O5           1.0410    -0.4880     0.2160 os         1 GLS      -0.391600
     12 N2           0.2770    -1.0200    -1.8740 ns         1 GLS      -0.571900
     13 C8           0.4450    -0.2970    -3.0060 c          1 GLS       0.845500
     14 O8           0.5970    -0.7010    -4.1330 o          1 GLS      -0.611500
     15 N1           0.4120     1.0410    -2.6240 ns         1 GLS      -0.605500
     16 C7           0.1540     1.1990    -1.3030 c          1 GLS       0.709500
     17 O7           0.0710     2.2380    -0.6970 o          1 GLS      -0.578500
     18 H2          -1.4570    -1.5830    -0.0140 h1         1 GLS       0.053700
     19 HO2         -3.1660    -0.1900    -0.7920 ho         1 GLS       0.434000
     20 H3          -1.5200     1.2410     1.1230 h1         1 GLS       0.082700
     21 HO3         -3.0110     0.2200     2.4950 ho         1 GLS       0.428000
     22 H4          -0.4680    -1.3750     2.2730 h1         1 GLS       0.051700
     23 HO4         -0.3050    -0.1970     4.0900 ho         1 GLS       0.413000
     24 H5           1.0040     1.1770     1.4660 h1         1 GLS       0.091700
     25 H61          2.0450    -1.5470     2.3320 h1         1 GLS       0.026200
     26 H62          1.9680    -0.1130     3.3580 h1         1 GLS       0.026200
     27 HO6          4.0130    -0.2490     2.3380 ho         1 GLS       0.407000
     28 HN2          0.1110    -2.0150    -1.9040 hn         1 GLS       0.350500
     29 HN1          0.5610     1.8000    -3.2740 hn         1 GLS       0.358500
@<TRIPOS>BOND
     1     1     2 1   
     2     1    11 1   
     3     1    12 1   
     4     1    16 1   
     5     2     3 1   
     6     2     4 1   
     7     2    18 1   
     8     3    19 1   
     9     4     5 1   
    10     4     6 1   
    11     4    20 1   
    12     5    21 1   
    13     6     7 1   
    14     6     8 1   
    15     6    22 1   
    16     7    23 1   
    17     8     9 1   
    18     8    11 1   
    19     8    24 1   
    20     9    10 1   
    21     9    25 1   
    22     9    26 1   
    23    10    27 1   
    24    12    13 1   
    25    12    28 1   
    26    13    14 2   
    27    13    15 1   
    28    15    16 1   
    29    15    29 1   
    30    16    17 2   
@<TRIPOS>SUBSTRUCTURE
     1 GLS         1 TEMP              0 ****  ****    0 ROOT
