@<TRIPOS>MOLECULE
GLS
   29    30     1     0     0
SMALL
No Charge or Current Charge


@<TRIPOS>ATOM
      1 C1           0.0060    -0.2210    -0.7830 c5         1 GLS       0.273400
      2 C2          -1.4080    -0.5570    -0.1970 c6         1 GLS       0.150300
      3 O2          -2.4860    -0.2100    -1.0900 oh         1 GLS      -0.711000
      4 C3          -1.6090     0.1680     1.1620 c6         1 GLS       0.132300
      5 O3          -2.8960    -0.1600     1.7180 oh         1 GLS      -0.668000
      6 C4          -0.4820    -0.2390     2.1480 c6         1 GLS       0.107300
      7 O4          -0.6840     0.4310     3.4120 oh         1 GLS      -0.715000
      8 C5           0.9160     0.0860     1.5250 c6         1 GLS       0.151300
      9 C6           2.1100    -0.4210     2.3990 c3         1 GLS       0.170600
     10 O6           3.3980    -0.1430     1.8170 oh         1 GLS      -0.699000
     11 O5           1.0510    -0.4940     0.1950 os         1 GLS      -0.438000
     12 N2           0.3270    -1.0110    -1.9850 ns         1 GLS      -0.504900
     13 C8           0.4920    -0.2230    -3.0800 c          1 GLS       0.636000
     14 O8           0.7230    -0.5960    -4.2140 o          1 GLS      -0.536000
     15 N1           0.3720     1.0410    -2.6650 ns         1 GLS      -0.471500
     16 C7           0.1190     1.2490    -1.3550 c          1 GLS       0.567000
     17 O7           0.0820     2.3440    -0.8080 o          1 GLS      -0.503000
     18 H2          -1.4340    -1.6400    -0.0030 h1         1 GLS       0.053700
     19 HO2         -3.2930    -0.2100    -0.5180 ho         1 GLS       0.533000
     20 H3          -1.5420     1.2550     0.9980 h1         1 GLS       0.082700
     21 HO3         -2.8280     0.0840     2.6710 ho         1 GLS       0.467000
     22 H4          -0.5400    -1.3290     2.2940 h1         1 GLS       0.051700
     23 HO4         -0.2770    -0.1270     4.1190 ho         1 GLS       0.512000
     24 H5           1.0130     1.1780     1.4400 h1         1 GLS       0.091700
     25 H61          1.9910    -1.5040     2.5460 h1         1 GLS       0.026200
     26 H62          2.0420     0.0520     3.3880 h1         1 GLS       0.026200
     27 HO6          4.0740    -0.5640     2.3980 ho         1 GLS       0.506000
     28 HN2          0.3710    -2.0170    -2.0660 hn         1 GLS       0.350500
     29 HN1          0.4980     1.8100    -3.3030 hn         1 GLS       0.358500
@<TRIPOS>BOND
     1     1     2 1   
     2     1    11 1   
     3     1    12 1   
     4     1    16 1   
     5     2     3 1   
     6     2     4 1   
     7     2    18 1   
     8     3    19 1   
     9     4     5 1   
    10     4     6 1   
    11     4    20 1   
    12     5    21 1   
    13     6     7 1   
    14     6     8 1   
    15     6    22 1   
    16     7    23 1   
    17     8     9 1   
    18     8    11 1   
    19     8    24 1   
    20     9    10 1   
    21     9    25 1   
    22     9    26 1   
    23    10    27 1   
    24    12    13 1   
    25    12    28 1   
    26    13    14 2   
    27    13    15 1   
    28    15    16 1   
    29    15    29 1   
    30    16    17 2   
@<TRIPOS>SUBSTRUCTURE
     1 GLS         1 TEMP              0 ****  ****    0 ROOT
