@<TRIPOS>MOLECULE
GLT
   24    24     1     0     0
SMALL
No Charge or Current Charge


@<TRIPOS>ATOM
      1 C1          44.1200    37.7230    -0.5610 c6         1 GLT       0.324300
      2 C2          43.2450    38.8990    -0.0040 c6         1 GLT       0.191300
      3 C3          42.8010    38.6400     1.4640 c6         1 GLT       0.130300
      4 C4          41.8610    37.4010     1.5910 c6         1 GLT       0.140300
      5 C5          42.6010    36.0830     1.1850 c6         1 GLT       0.057300
      6 C6          41.7240    34.8070     1.4050 c3         1 GLT       0.175600
      7 S5          43.1980    36.1310    -0.5870 ss         1 GLT      -0.465000
      8 O1          45.3060    37.5060     0.2100 oh         1 GLT      -0.689000
      9 O2          43.9190    40.1730    -0.0520 oh         1 GLT      -0.704000
     10 O3          42.1210    39.8030     1.9830 oh         1 GLT      -0.733000
     11 O4          41.3760    37.3470     2.9510 oh         1 GLT      -0.726000
     12 O6          42.4510    33.5910     1.1650 oh         1 GLT      -0.644000
     13 H1          44.3890    37.9470    -1.6050 h2         1 GLT       0.077700
     14 H2          42.3380    38.9520    -0.6240 h1         1 GLT       0.053700
     15 H3          43.7000    38.4420     2.0680 h1         1 GLT       0.074700
     16 H4          41.0140    37.5420     0.9020 h1         1 GLT       0.054700
     17 H5          43.4890    35.9810     1.8240 h1         1 GLT       0.100700
     18 H61         41.3510    34.8040     2.4370 h1         1 GLT       0.025700
     19 H62         40.8530    34.8650     0.7380 h1         1 GLT       0.025700
     20 HO1         45.7500    36.7330    -0.2020 ho         1 GLT       0.520000
     21 HO2         43.4850    40.6720     0.6860 ho         1 GLT       0.524000
     22 HO3         41.5940    39.4410     2.7390 ho         1 GLT       0.527000
     23 HO4         40.5260    36.8470     2.9470 ho         1 GLT       0.510000
     24 HO6         41.8100    32.8520     1.2580 ho         1 GLT       0.446000
@<TRIPOS>BOND
     1     1     2 1   
     2     1     7 1   
     3     1     8 1   
     4     1    13 1   
     5     2     3 1   
     6     2     9 1   
     7     2    14 1   
     8     3     4 1   
     9     3    10 1   
    10     3    15 1   
    11     4     5 1   
    12     4    11 1   
    13     4    16 1   
    14     5     6 1   
    15     5     7 1   
    16     5    17 1   
    17     6    12 1   
    18     6    18 1   
    19     6    19 1   
    20     8    20 1   
    21     9    21 1   
    22    10    22 1   
    23    11    23 1   
    24    12    24 1   
@<TRIPOS>SUBSTRUCTURE
     1 GLT         1 TEMP              0 ****  ****    0 ROOT
