@<TRIPOS>MOLECULE
GLT
   24    24     1     0     0
SMALL
bcc


@<TRIPOS>ATOM
      1 C1          44.0870    37.6820    -0.4780 c6         1 GLT       0.253200
      2 C2          43.2370    38.8250     0.0540 c6         1 GLT       0.168100
      3 C3          42.7430    38.5800     1.4800 c6         1 GLT       0.107100
      4 C4          41.8640    37.3360     1.6070 c6         1 GLT       0.117100
      5 C5          42.6070    36.0560     1.2180 c6         1 GLT       0.009400
      6 C6          41.7290    34.8290     1.3940 c3         1 GLT       0.152400
      7 S5          43.1050    36.1460    -0.5330 ss         1 GLT      -0.369200
      8 O1          45.2360    37.5620     0.2970 oh         1 GLT      -0.566800
      9 O2          44.0100    39.9980    -0.0180 oh         1 GLT      -0.581800
     10 O3          42.0140    39.7340     1.8320 oh         1 GLT      -0.610800
     11 O4          41.4480    37.2910     2.9580 oh         1 GLT      -0.603800
     12 O6          42.4260    33.6940     0.9400 oh         1 GLT      -0.581800
     13 H1          44.3180    37.8800    -1.5330 h2         1 GLT       0.077700
     14 H2          42.3580    38.8930    -0.6040 h1         1 GLT       0.053700
     15 H3          43.6120    38.4560     2.1420 h1         1 GLT       0.074700
     16 H4          40.9990    37.4470     0.9360 h1         1 GLT       0.054700
     17 H5          43.5080    35.9520     1.8300 h1         1 GLT       0.100700
     18 H61         41.4710    34.7390     2.4550 h1         1 GLT       0.025700
     19 H62         40.7900    34.9770     0.8420 h1         1 GLT       0.025700
     20 HO1         45.7980    36.8800    -0.0860 ho         1 GLT       0.421000
     21 HO2         43.4980    40.7120     0.3770 ho         1 GLT       0.425000
     22 HO3         41.7530    39.6520     2.7550 ho         1 GLT       0.428000
     23 HO4         40.5570    36.9310     3.0040 ho         1 GLT       0.411000
     24 HO6         41.8540    32.9300     1.0500 ho         1 GLT       0.407000
@<TRIPOS>BOND
     1     1     2 1   
     2     1     7 1   
     3     1     8 1   
     4     1    13 1   
     5     2     3 1   
     6     2     9 1   
     7     2    14 1   
     8     3     4 1   
     9     3    10 1   
    10     3    15 1   
    11     4     5 1   
    12     4    11 1   
    13     4    16 1   
    14     5     6 1   
    15     5     7 1   
    16     5    17 1   
    17     6    12 1   
    18     6    18 1   
    19     6    19 1   
    20     8    20 1   
    21     9    21 1   
    22    10    22 1   
    23    11    23 1   
    24    12    24 1   
@<TRIPOS>SUBSTRUCTURE
     1 GLT         1 TEMP              0 ****  ****    0 ROOT
