@<TRIPOS>MOLECULE
GLV
    6     5     1     0     0
SMALL
No Charge or Current Charge


@<TRIPOS>ATOM
      1 C1          -0.6710    -0.0410    -0.9340 c          1 GLV       0.432900
      2 O1          -0.0530    -0.0430    -2.0050 o          1 GLV      -0.574100
      3 C2           0.0200    -0.0190     0.5250 c          1 GLV       0.627000
      4 O2           1.2470    -0.0030     0.6050 o          1 GLV      -0.705500
      5 O3          -0.7140    -0.0200     1.5100 o          1 GLV      -0.705500
      6 H1          -1.7860    -0.0550    -0.9460 h4         1 GLV      -0.073800
@<TRIPOS>BOND
     1     1     2 2   
     2     1     3 1   
     3     1     6 1   
     4     3     4 1   
     5     3     5 1   
@<TRIPOS>SUBSTRUCTURE
     1 GLV         1 TEMP              0 ****  ****    0 ROOT
