@<TRIPOS>MOLECULE
GLV
    6     5     1     0     0
SMALL
bcc


@<TRIPOS>ATOM
      1 C1          -0.6460    -0.0410    -0.8940 c          1 GLV       0.432900
      2 O1          -0.0390    -0.0370    -1.9330 o          1 GLV      -0.574100
      3 C2           0.0180    -0.0200     0.4980 c          1 GLV       0.837600
      4 O2           1.2570    -0.0080     0.5230 o          1 GLV      -0.810800
      5 O3          -0.7950    -0.0170     1.4380 o          1 GLV      -0.810800
      6 H1          -1.7530    -0.0590    -0.8770 h4         1 GLV      -0.073800
@<TRIPOS>BOND
     1     1     2 2   
     2     1     3 1   
     3     1     6 1   
     4     3     4 1   
     5     3     5 1   
@<TRIPOS>SUBSTRUCTURE
     1 GLV         1 TEMP              0 ****  ****    0 ROOT
