@<TRIPOS>MOLECULE
GLZ
    9     8     1     0     0
SMALL
No Charge or Current Charge


@<TRIPOS>ATOM
      1 N           49.9370    45.0480     3.6520 n8         1 GLZ      -0.890800
      2 CA          48.7210    44.2380     4.0130 c3         1 GLZ       0.021800
      3 C           48.6530    42.7690     3.4900 c          1 GLZ       0.574900
      4 O           49.3170    42.3410     2.5470 o          1 GLZ      -0.519100
      5 H           49.8190    46.0160     3.9750 hn         1 GLZ       0.348300
      6 H2          50.0090    45.1260     2.6300 hn         1 GLZ       0.348300
      7 HA1         48.6410    44.1940     5.1070 h1         1 GLZ       0.057200
      8 HA2         47.8250    44.7530     3.6400 h1         1 GLZ       0.057200
      9 HXT         47.9400    42.1090     4.0320 h4         1 GLZ       0.002200
@<TRIPOS>BOND
     1     1     2 1   
     2     1     5 1   
     3     1     6 1   
     4     2     3 1   
     5     2     7 1   
     6     2     8 1   
     7     3     4 2   
     8     3     9 1   
@<TRIPOS>SUBSTRUCTURE
     1 GLZ         1 TEMP              0 ****  ****    0 ROOT
