@<TRIPOS>MOLECULE
GLZ
    9     8     1     0     0
SMALL
bcc


@<TRIPOS>ATOM
      1 N           49.8390    44.8500     4.1720 n8         1 GLZ      -0.890800
      2 CA          48.6010    44.3310     3.6290 c3         1 GLZ       0.021800
      3 C           48.6960    42.8410     3.4400 c          1 GLZ       0.574900
      4 O           48.0480    42.2040     2.6480 o          1 GLZ      -0.519100
      5 H           49.6860    45.7680     4.5660 hn         1 GLZ       0.348300
      6 H2          50.5220    44.9680     3.4360 hn         1 GLZ       0.348300
      7 HA1         47.8060    44.4830     4.3680 h1         1 GLZ       0.057200
      8 HA2         48.2490    44.7970     2.7010 h1         1 GLZ       0.057200
      9 HXT         49.4150    42.3530     4.1250 h4         1 GLZ       0.002200
@<TRIPOS>BOND
     1     1     2 1   
     2     1     5 1   
     3     1     6 1   
     4     2     3 1   
     5     2     7 1   
     6     2     8 1   
     7     3     4 2   
     8     3     9 1   
@<TRIPOS>SUBSTRUCTURE
     1 GLZ         1 TEMP              0 ****  ****    0 ROOT
