@<TRIPOS>MOLECULE
GM1
   11    10     1     0     0
SMALL
bcc


@<TRIPOS>ATOM
      1 C1          -0.1120     0.0680    -0.5220 c          1 GM1       0.669100
      2 N1           0.5760    -0.0510    -1.6700 nt         1 GM1      -0.684000
      3 O1          -1.3250     0.1920    -0.4800 o          1 GM1      -0.585100
      4 C2           0.7530     0.0580     0.7280 c3         1 GM1       0.066800
      5 N2          -0.0490    -0.0650     1.9250 n8         1 GM1      -0.860800
      6 HN11         0.1090     0.0370    -2.5580 hn         1 GM1       0.311000
      7 HN12         1.5800    -0.1030    -1.6820 hn         1 GM1       0.311000
      8 H21          1.3830     0.9600     0.6890 h1         1 GM1       0.039700
      9 H22          1.4420    -0.7880     0.6700 h1         1 GM1       0.039700
     10 HN21         0.5690    -0.1010     2.7240 hn         1 GM1       0.345800
     11 HN22        -0.6060     0.7700     2.0470 hn         1 GM1       0.345800
@<TRIPOS>BOND
     1     1     2 1   
     2     1     3 2   
     3     1     4 1   
     4     2     6 1   
     5     2     7 1   
     6     4     5 1   
     7     4     8 1   
     8     4     9 1   
     9     5    10 1   
    10     5    11 1   
@<TRIPOS>SUBSTRUCTURE
     1 GM1         1 TEMP              0 ****  ****    0 ROOT
