@<TRIPOS>MOLECULE
GM1
   11    10     1     0     0
SMALL
No Charge or Current Charge


@<TRIPOS>ATOM
      1 C1          -0.1010     0.1440    -0.5890 c          1 GM1       0.602100
      2 N1           0.5790    -0.0730    -1.7390 nt         1 GM1      -0.617000
      3 O1          -1.3020     0.3740    -0.6240 o          1 GM1      -0.585100
      4 C2           0.7420     0.0850     0.7320 c3         1 GM1       0.066800
      5 N2           0.0010    -0.1410     2.0230 n8         1 GM1      -0.971200
      6 HN11         0.0830    -0.0460    -2.6180 hn         1 GM1       0.311000
      7 HN12         1.5700    -0.2630    -1.7140 hn         1 GM1       0.311000
      8 H21          1.2940     1.0320     0.8050 h1         1 GM1       0.039700
      9 H22          1.4830    -0.7180     0.6190 h1         1 GM1       0.039700
     10 HN21         0.6480    -0.0350     2.8160 hn         1 GM1       0.401000
     11 HN22        -0.6800     0.6180     2.1590 hn         1 GM1       0.401000
@<TRIPOS>BOND
     1     1     2 1   
     2     1     3 2   
     3     1     4 1   
     4     2     6 1   
     5     2     7 1   
     6     4     5 1   
     7     4     8 1   
     8     4     9 1   
     9     5    10 1   
    10     5    11 1   
@<TRIPOS>SUBSTRUCTURE
     1 GM1         1 TEMP              0 ****  ****    0 ROOT
