@<TRIPOS>MOLECULE
GM3
  158   158     1     0     0
SMALL
No Charge or Current Charge


@<TRIPOS>ATOM
      1 OBB          7.4620     4.6080     1.2070 oh         1 GM3      -0.666000
      2 CBA          6.5270     5.4160     1.9360 c3         1 GM3       0.164300
      3 CBC          6.5530     4.9850     3.4270 c3         1 GM3      -0.077400
      4 CBD          5.6060     5.7930     4.3480 c3         1 GM3      -0.081400
      5 CBE          5.7220     5.3890     5.8330 c3         1 GM3      -0.071400
      6 CBF          4.7640     6.1820     6.7490 c3         1 GM3      -0.078400
      7 CBG          4.8780     5.7810     8.2360 c3         1 GM3      -0.072400
      8 CBH          3.9210     6.5750     9.1510 c3         1 GM3      -0.074400
      9 CBI          4.0360     6.1750    10.6390 c3         1 GM3      -0.074400
     10 CBJ          3.0810     6.9710    11.5550 c3         1 GM3      -0.074400
     11 CBK          3.1970     6.5720    13.0420 c3         1 GM3      -0.074400
     12 CBL          2.2430     7.3690    13.9580 c3         1 GM3      -0.074400
     13 CBM          2.3600     6.9700    15.4460 c3         1 GM3      -0.074400
     14 CBN          1.4070     7.7670    16.3620 c3         1 GM3      -0.074400
     15 CBO          1.5240     7.3690    17.8500 c3         1 GM3      -0.074400
     16 CBP          0.5700     8.1660    18.7660 c3         1 GM3      -0.074400
     17 CBQ          0.6880     7.7670    20.2540 c3         1 GM3      -0.075400
     18 CB1         -0.2670     8.5630    21.1710 c3         1 GM3      -0.075400
     19 CB2         -0.1490     8.1660    22.6550 c3         1 GM3      -0.088100
     20 CAY          5.1240     5.3580     1.2470 c3         1 GM3       0.074700
     21 CAX          4.4460     3.9660     1.3390 c3         1 GM3       0.141600
     22 OAD          3.1470     4.0560     0.7250 os         1 GM3      -0.464000
     23 CAB          2.3220     2.8770     0.7890 c6         1 GM3       0.349300
     24 CAO          1.0090     3.0340    -0.0630 c6         1 GM3       0.164300
     25 OAP          1.2930     3.3710    -1.4500 oh         1 GM3      -0.682000
     26 CAQ          0.0830     4.1100     0.5990 c6         1 GM3       0.176300
     27 OAR         -1.1900     4.2200    -0.0690 oh         1 GM3      -0.648000
     28 CAS         -0.1690     3.7760     2.1010 c6         1 GM3       0.107300
     29 O1          -0.9860     4.8050     2.7030 oh         1 GM3      -0.716000
     30 CAT          1.1970     3.6180     2.8310 c6         1 GM3       0.098300
     31 CAV          1.0550     3.1830     4.3190 c3         1 GM3       0.167600
     32 OAW          2.2920     2.6410     4.7990 oh         1 GM3      -0.711000
     33 OAU          2.0000     2.6000     2.1720 os         1 GM3      -0.489000
     34 NAZ          5.1850     5.8190    -0.1560 ns         1 GM3      -0.508900
     35 CBR          5.3440     7.1290    -0.5470 c          1 GM3       0.604100
     36 OBT          5.4920     8.0380     0.2560 o          1 GM3      -0.604100
     37 CBS          5.2830     7.3660    -2.0590 c3         1 GM3      -0.158400
     38 CBU          6.6810     7.6800    -2.6420 c3         1 GM3      -0.066400
     39 CBV          6.6590     7.9280    -4.1660 c3         1 GM3      -0.076400
     40 CBW          8.0550     8.2450    -4.7460 c3         1 GM3      -0.074400
     41 CBX          8.0340     8.4960    -6.2700 c3         1 GM3      -0.074400
     42 CBY          9.4300     8.8130    -6.8490 c3         1 GM3      -0.074400
     43 CBZ          9.4100     9.0660    -8.3720 c3         1 GM3      -0.074400
     44 CCA         10.8080     9.3830    -8.9490 c3         1 GM3      -0.074400
     45 CCB         10.7900     9.6390   -10.4720 c3         1 GM3      -0.074400
     46 CCC         12.1880     9.9550   -11.0470 c3         1 GM3      -0.074400
     47 CCD         12.1720    10.2160   -12.5690 c3         1 GM3      -0.074400
     48 CCE         13.5700    10.5320   -13.1420 c3         1 GM3      -0.074400
     49 CCF         13.5550    10.7970   -14.6640 c3         1 GM3      -0.074400
     50 CCG         14.9540    11.1140   -15.2360 c3         1 GM3      -0.074400
     51 CCH         14.9390    11.3820   -16.7570 c3         1 GM3      -0.074400
     52 CCI         16.3390    11.7020   -17.3270 c3         1 GM3      -0.074400
     53 CCJ         16.3250    11.9730   -18.8470 c3         1 GM3      -0.074400
     54 CCK         17.7240    12.2960   -19.4160 c3         1 GM3      -0.074400
     55 CCL         17.7100    12.5680   -20.9360 c3         1 GM3      -0.074400
     56 CCM         19.1090    12.8930   -21.5050 c3         1 GM3      -0.074400
     57 CCN         19.0950    13.1650   -23.0250 c3         1 GM3      -0.075400
     58 CCO         20.4940    13.4920   -23.5930 c3         1 GM3      -0.074400
     59 CCP         20.4810    13.7640   -25.1100 c3         1 GM3      -0.088100
     60 HBB          7.4000     4.8890     0.2690 ho         1 GM3       0.446000
     61 HBA          6.8610     6.4620     1.9040 h1         1 GM3       0.048700
     62 HBC1         6.3190     3.9170     3.5110 hc         1 GM3       0.051700
     63 HBC2         7.5790     5.1010     3.7970 hc         1 GM3       0.051700
     64 HBD1         5.8290     6.8630     4.2450 hc         1 GM3       0.046700
     65 HBD2         4.5670     5.6480     4.0280 hc         1 GM3       0.046700
     66 HBE1         5.5080     4.3170     5.9330 hc         1 GM3       0.034700
     67 HBE2         6.7540     5.5440     6.1710 hc         1 GM3       0.034700
     68 HBF1         4.9740     7.2540     6.6480 hc         1 GM3       0.045700
     69 HBF2         3.7310     6.0250     6.4120 hc         1 GM3       0.045700
     70 HBG1         5.9100     5.9360     8.5730 hc         1 GM3       0.034700
     71 HBG2         4.6650     4.7090     8.3370 hc         1 GM3       0.034700
     72 HBH1         2.8880     6.4190     8.8150 hc         1 GM3       0.038700
     73 HBH2         4.1320     7.6470     9.0500 hc         1 GM3       0.038700
     74 HBI1         5.0690     6.3300    10.9740 hc         1 GM3       0.036200
     75 HBI2         3.8230     5.1040    10.7410 hc         1 GM3       0.036200
     76 HBJ1         3.2930     8.0430    11.4520 hc         1 GM3       0.037700
     77 HBJ2         2.0470     6.8160    11.2200 hc         1 GM3       0.037700
     78 HBK1         2.9840     5.5000    13.1450 hc         1 GM3       0.036700
     79 HBK2         4.2310     6.7270    13.3760 hc         1 GM3       0.036700
     80 HBL1         1.2100     7.2140    13.6240 hc         1 GM3       0.037200
     81 HBL2         2.4560     8.4400    13.8550 hc         1 GM3       0.037200
     82 HBM1         2.1470     5.8990    15.5490 hc         1 GM3       0.036700
     83 HBM2         3.3940     7.1250    15.7800 hc         1 GM3       0.036700
     84 HBN1         1.6190     8.8390    16.2580 hc         1 GM3       0.037200
     85 HBN2         0.3730     7.6120    16.0280 hc         1 GM3       0.037200
     86 HBO1         1.3120     6.2970    17.9530 hc         1 GM3       0.036700
     87 HBO2         2.5580     7.5250    18.1840 hc         1 GM3       0.036700
     88 HBP1        -0.4640     8.0090    18.4330 hc         1 GM3       0.036700
     89 HBP2         0.7820     9.2370    18.6620 hc         1 GM3       0.036700
     90 HBQ1         0.4780     6.6960    20.3580 hc         1 GM3       0.036700
     91 HBQ2         1.7210     7.9250    20.5880 hc         1 GM3       0.036700
     92 HB11        -1.3020     8.4060    20.8410 hc         1 GM3       0.036700
     93 HB12        -0.0590     9.6350    21.0710 hc         1 GM3       0.036700
     94 HB21        -0.3860     7.1040    22.7930 hc         1 GM3       0.031367
     95 HB22         0.8680     8.3450    23.0250 hc         1 GM3       0.031367
     96 HB23        -0.8440     8.7550    23.2640 hc         1 GM3       0.031367
     97 HAY          4.4700     6.0600     1.7810 h1         1 GM3       0.096700
     98 HAX1         4.3490     3.6750     2.3920 h1         1 GM3       0.045200
     99 HAX2         5.0640     3.2140     0.8310 h1         1 GM3       0.045200
    100 HAB          2.8910     2.0270     0.3850 h2         1 GM3       0.064700
    101 HAO          0.4790     2.0710    -0.0240 h1         1 GM3       0.051700
    102 HAP          1.7870     2.6140    -1.8380 ho         1 GM3       0.502000
    103 HAQ          0.6110     5.0760     0.5560 h1         1 GM3       0.076700
    104 HAR         -1.7590     4.7070     0.5710 ho         1 GM3       0.457000
    105 HAS         -0.6930     2.8080     2.1490 h1         1 GM3       0.047700
    106 H1          -1.4510     4.4060     3.4760 ho         1 GM3       0.510000
    107 HAT          1.7390     4.5760     2.8060 h1         1 GM3       0.081700
    108 HAV1         0.2630     2.4260     4.3880 h1         1 GM3       0.048200
    109 HAV2         0.7470     4.0480     4.9220 h1         1 GM3       0.048200
    110 HAW          2.6960     2.2520     3.9840 ho         1 GM3       0.511000
    111 HAZ          4.9920     5.1460    -0.8880 hn         1 GM3       0.311500
    112 HBS1         4.6260     8.2220    -2.2530 hc         1 GM3       0.058200
    113 HBS2         4.8890     6.4750    -2.5630 hc         1 GM3       0.058200
    114 HBU1         7.3590     6.8450    -2.4210 hc         1 GM3       0.053700
    115 HBU2         7.0920     8.5650    -2.1380 hc         1 GM3       0.053700
    116 HBV1         6.2520     7.0420    -4.6700 hc         1 GM3       0.036700
    117 HBV2         5.9800     8.7620    -4.3850 hc         1 GM3       0.036700
    118 HBW1         8.4630     9.1290    -4.2410 hc         1 GM3       0.039700
    119 HBW2         8.7330     7.4100    -4.5280 hc         1 GM3       0.039700
    120 HBX1         7.3550     9.3300    -6.4880 hc         1 GM3       0.036700
    121 HBX2         7.6260     7.6110    -6.7750 hc         1 GM3       0.036700
    122 HBY1        10.1080     7.9770    -6.6320 hc         1 GM3       0.037700
    123 HBY2         9.8380     9.6960    -6.3420 hc         1 GM3       0.037700
    124 HBZ1         8.7330     9.9020    -8.5890 hc         1 GM3       0.037200
    125 HBZ2         9.0030     8.1830    -8.8790 hc         1 GM3       0.037200
    126 HCA1        11.4840     8.5460    -8.7330 hc         1 GM3       0.037200
    127 HCA2        11.2160    10.2650    -8.4400 hc         1 GM3       0.037200
    128 HCB1        10.1140    10.4760   -10.6880 hc         1 GM3       0.037200
    129 HCB2        10.3820     8.7570   -10.9810 hc         1 GM3       0.037200
    130 HCC1        12.8640     9.1180   -10.8320 hc         1 GM3       0.037200
    131 HCC2        12.5970    10.8360   -10.5360 hc         1 GM3       0.037200
    132 HCD1        11.4960    11.0540   -12.7840 hc         1 GM3       0.037200
    133 HCD2        11.7630     9.3350   -13.0810 hc         1 GM3       0.037200
    134 HCE1        13.9800    11.4110   -12.6290 hc         1 GM3       0.037200
    135 HCE2        14.2450     9.6940   -12.9290 hc         1 GM3       0.037200
    136 HCF1        12.8800    11.6350   -14.8770 hc         1 GM3       0.037200
    137 HCF2        13.1460     9.9180   -15.1780 hc         1 GM3       0.037200
    138 HCG1        15.3640    11.9920   -14.7190 hc         1 GM3       0.037200
    139 HCG2        15.6280    10.2750   -15.0250 hc         1 GM3       0.037200
    140 HCH1        14.2640    12.2210   -16.9680 hc         1 GM3       0.036700
    141 HCH2        14.5320    10.5040   -17.2740 hc         1 GM3       0.036700
    142 HCI1        17.0140    10.8630   -17.1170 hc         1 GM3       0.037200
    143 HCI2        16.7470    12.5790   -16.8090 hc         1 GM3       0.037200
    144 HCJ1        15.6480    12.8110   -19.0570 hc         1 GM3       0.036700
    145 HCJ2        15.9180    11.0960   -19.3660 hc         1 GM3       0.036700
    146 HCK1        18.1300    13.1740   -18.8970 hc         1 GM3       0.036700
    147 HCK2        18.4000    11.4580   -19.2060 hc         1 GM3       0.036700
    148 HCL1        17.3050    11.6900   -21.4560 hc         1 GM3       0.036700
    149 HCL2        17.0330    13.4050   -21.1460 hc         1 GM3       0.036700
    150 HCM1        19.7860    12.0550   -21.2950 hc         1 GM3       0.036700
    151 HCM2        19.5140    13.7710   -20.9850 hc         1 GM3       0.036700
    152 HCN1        18.6920    12.2880   -23.5450 hc         1 GM3       0.036700
    153 HCN2        18.4170    14.0020   -23.2350 hc         1 GM3       0.036700
    154 HCO1        21.1750    12.6570   -23.3860 hc         1 GM3       0.036700
    155 HCO2        20.9000    14.3710   -23.0770 hc         1 GM3       0.036700
    156 HCP1        21.4930    13.9910   -25.4660 hc         1 GM3       0.031367
    157 HCP2        20.1120    12.8880   -25.6580 hc         1 GM3       0.031367
    158 HCP3        19.8350    14.6180   -25.3450 hc         1 GM3       0.031367
@<TRIPOS>BOND
     1     1     2 1   
     2     1    60 1   
     3     2     3 1   
     4     2    20 1   
     5     2    61 1   
     6     3     4 1   
     7     3    62 1   
     8     3    63 1   
     9     4     5 1   
    10     4    64 1   
    11     4    65 1   
    12     5     6 1   
    13     5    66 1   
    14     5    67 1   
    15     6     7 1   
    16     6    68 1   
    17     6    69 1   
    18     7     8 1   
    19     7    70 1   
    20     7    71 1   
    21     8     9 1   
    22     8    72 1   
    23     8    73 1   
    24     9    10 1   
    25     9    74 1   
    26     9    75 1   
    27    10    11 1   
    28    10    76 1   
    29    10    77 1   
    30    11    12 1   
    31    11    78 1   
    32    11    79 1   
    33    12    13 1   
    34    12    80 1   
    35    12    81 1   
    36    13    14 1   
    37    13    82 1   
    38    13    83 1   
    39    14    15 1   
    40    14    84 1   
    41    14    85 1   
    42    15    16 1   
    43    15    86 1   
    44    15    87 1   
    45    16    17 1   
    46    16    88 1   
    47    16    89 1   
    48    17    18 1   
    49    17    90 1   
    50    17    91 1   
    51    18    19 1   
    52    18    92 1   
    53    18    93 1   
    54    19    94 1   
    55    19    95 1   
    56    19    96 1   
    57    20    21 1   
    58    20    34 1   
    59    20    97 1   
    60    21    22 1   
    61    21    98 1   
    62    21    99 1   
    63    22    23 1   
    64    23    24 1   
    65    23    33 1   
    66    23   100 1   
    67    24    25 1   
    68    24    26 1   
    69    24   101 1   
    70    25   102 1   
    71    26    27 1   
    72    26    28 1   
    73    26   103 1   
    74    27   104 1   
    75    28    29 1   
    76    28    30 1   
    77    28   105 1   
    78    29   106 1   
    79    30    31 1   
    80    30    33 1   
    81    30   107 1   
    82    31    32 1   
    83    31   108 1   
    84    31   109 1   
    85    32   110 1   
    86    34    35 1   
    87    34   111 1   
    88    35    36 2   
    89    35    37 1   
    90    37    38 1   
    91    37   112 1   
    92    37   113 1   
    93    38    39 1   
    94    38   114 1   
    95    38   115 1   
    96    39    40 1   
    97    39   116 1   
    98    39   117 1   
    99    40    41 1   
   100    40   118 1   
   101    40   119 1   
   102    41    42 1   
   103    41   120 1   
   104    41   121 1   
   105    42    43 1   
   106    42   122 1   
   107    42   123 1   
   108    43    44 1   
   109    43   124 1   
   110    43   125 1   
   111    44    45 1   
   112    44   126 1   
   113    44   127 1   
   114    45    46 1   
   115    45   128 1   
   116    45   129 1   
   117    46    47 1   
   118    46   130 1   
   119    46   131 1   
   120    47    48 1   
   121    47   132 1   
   122    47   133 1   
   123    48    49 1   
   124    48   134 1   
   125    48   135 1   
   126    49    50 1   
   127    49   136 1   
   128    49   137 1   
   129    50    51 1   
   130    50   138 1   
   131    50   139 1   
   132    51    52 1   
   133    51   140 1   
   134    51   141 1   
   135    52    53 1   
   136    52   142 1   
   137    52   143 1   
   138    53    54 1   
   139    53   144 1   
   140    53   145 1   
   141    54    55 1   
   142    54   146 1   
   143    54   147 1   
   144    55    56 1   
   145    55   148 1   
   146    55   149 1   
   147    56    57 1   
   148    56   150 1   
   149    56   151 1   
   150    57    58 1   
   151    57   152 1   
   152    57   153 1   
   153    58    59 1   
   154    58   154 1   
   155    58   155 1   
   156    59   156 1   
   157    59   157 1   
   158    59   158 1   
@<TRIPOS>SUBSTRUCTURE
     1 GM3         1 TEMP              0 ****  ****    0 ROOT
