@<TRIPOS>MOLECULE
GM3
  158   158     1     0     0
SMALL
bcc


@<TRIPOS>ATOM
      1 OBB          6.4230     1.6870     1.4710 oh         1 GM3      -0.603800
      2 CBA          6.0080     2.9210     2.0200 c3         1 GM3       0.141100
      3 CBC          5.6620     2.6790     3.4830 c3         1 GM3      -0.077400
      4 CBD          5.2000     3.9250     4.2300 c3         1 GM3      -0.081400
      5 CBE          5.0210     3.6690     5.7220 c3         1 GM3      -0.071400
      6 CBF          4.6380     4.9180     6.5060 c3         1 GM3      -0.078400
      7 CBG          4.4290     4.6480     7.9910 c3         1 GM3      -0.072400
      8 CBH          4.1190     5.9030     8.7970 c3         1 GM3      -0.074400
      9 CBI          3.8770     5.6230    10.2750 c3         1 GM3      -0.074400
     10 CBJ          3.5950     6.8790    11.0900 c3         1 GM3      -0.074400
     11 CBK          3.3350     6.5950    12.5640 c3         1 GM3      -0.074400
     12 CBL          3.0590     7.8500    13.3820 c3         1 GM3      -0.074400
     13 CBM          2.7870     7.5630    14.8530 c3         1 GM3      -0.074400
     14 CBN          2.5100     8.8190    15.6710 c3         1 GM3      -0.074400
     15 CBO          2.2260     8.5310    17.1400 c3         1 GM3      -0.074400
     16 CBP          1.9420     9.7860    17.9560 c3         1 GM3      -0.074400
     17 CBQ          1.6490     9.4980    19.4240 c3         1 GM3      -0.075400
     18 CB1          1.3520    10.7520    20.2380 c3         1 GM3      -0.075400
     19 CB2          1.0610    10.4540    21.7020 c3         1 GM3      -0.088100
     20 CAY          4.8630     3.5370     1.2010 c3         1 GM3       0.074700
     21 CAX          3.5930     2.7040     1.2410 c3         1 GM3       0.118400
     22 OAD          2.6070     3.3670     0.4780 os         1 GM3      -0.417600
     23 CAB          1.3000     3.0260     0.7910 c6         1 GM3       0.302900
     24 CAO          0.3810     3.5600    -0.3130 c6         1 GM3       0.141100
     25 OAP          0.7740     3.1240    -1.5850 oh         1 GM3      -0.559800
     26 CAQ          0.3760     5.0800    -0.2930 c6         1 GM3       0.153100
     27 OAR         -0.5560     5.5310    -1.2450 oh         1 GM3      -0.585800
     28 CAS          0.0150     5.5690     1.1080 c6         1 GM3       0.084100
     29 O1           0.1150     6.9770     1.1010 oh         1 GM3      -0.593800
     30 CAT          0.9500     4.9480     2.1450 c6         1 GM3       0.075100
     31 CAV          0.5560     5.2870     3.5710 c3         1 GM3       0.144400
     32 OAW          1.4800     4.8070     4.5190 oh         1 GM3      -0.588800
     33 OAU          0.9050     3.5320     2.0380 os         1 GM3      -0.442600
     34 NAZ          5.2740     3.7350    -0.1740 ns         1 GM3      -0.575900
     35 CBR          5.5910     4.9330    -0.7020 c          1 GM3       0.671100
     36 OBT          5.6950     5.9500    -0.0300 o          1 GM3      -0.604100
     37 CBS          5.7970     4.9300    -2.2010 c3         1 GM3      -0.158400
     38 CBU          6.8640     5.9120    -2.6660 c3         1 GM3      -0.066400
     39 CBV          7.0290     5.9090    -4.1800 c3         1 GM3      -0.076400
     40 CBW          8.0990     6.8810    -4.6600 c3         1 GM3      -0.074400
     41 CBX          8.2810     6.8790    -6.1730 c3         1 GM3      -0.074400
     42 CBY          9.3580     7.8460    -6.6480 c3         1 GM3      -0.074400
     43 CBZ          9.5530     7.8390    -8.1590 c3         1 GM3      -0.074400
     44 CCA         10.6370     8.8020    -8.6280 c3         1 GM3      -0.074400
     45 CCB         10.8440     8.7910   -10.1380 c3         1 GM3      -0.074400
     46 CCC         11.9340     9.7500   -10.6010 c3         1 GM3      -0.074400
     47 CCD         12.1520     9.7350   -12.1090 c3         1 GM3      -0.074400
     48 CCE         13.2450    10.6910   -12.5670 c3         1 GM3      -0.074400
     49 CCF         13.4720    10.6730   -14.0740 c3         1 GM3      -0.074400
     50 CCG         14.5700    11.6270   -14.5280 c3         1 GM3      -0.074400
     51 CCH         14.8040    11.6070   -16.0330 c3         1 GM3      -0.074400
     52 CCI         15.9040    12.5600   -16.4830 c3         1 GM3      -0.074400
     53 CCJ         16.1440    12.5390   -17.9880 c3         1 GM3      -0.074400
     54 CCK         17.2460    13.4910   -18.4350 c3         1 GM3      -0.074400
     55 CCL         17.4890    13.4710   -19.9390 c3         1 GM3      -0.074400
     56 CCM         18.5940    14.4210   -20.3830 c3         1 GM3      -0.074400
     57 CCN         18.8370    14.4030   -21.8870 c3         1 GM3      -0.075400
     58 CCO         19.9440    15.3510   -22.3310 c3         1 GM3      -0.074400
     59 CCP         20.1770    15.3270   -23.8350 c3         1 GM3      -0.088100
     60 HBB          6.8570     1.8600     0.6300 ho         1 GM3       0.407000
     61 HBA          6.8330     3.6480     1.9870 h1         1 GM3       0.048700
     62 HBC1         4.9060     1.8920     3.5700 hc         1 GM3       0.051700
     63 HBC2         6.5600     2.2890     3.9730 hc         1 GM3       0.051700
     64 HBD1         5.9310     4.7290     4.0830 hc         1 GM3       0.046700
     65 HBD2         4.2520     4.2950     3.8250 hc         1 GM3       0.046700
     66 HBE1         4.2550     2.9000     5.8660 hc         1 GM3       0.034700
     67 HBE2         5.9480     3.2540     6.1320 hc         1 GM3       0.034700
     68 HBF1         5.4200     5.6750     6.3810 hc         1 GM3       0.045700
     69 HBF2         3.7240     5.3450     6.0820 hc         1 GM3       0.045700
     70 HBG1         5.3240     4.1680     8.4020 hc         1 GM3       0.034700
     71 HBG2         3.6140     3.9260     8.1150 hc         1 GM3       0.034700
     72 HBH1         3.2390     6.3990     8.3730 hc         1 GM3       0.038700
     73 HBH2         4.9470     6.6130     8.6910 hc         1 GM3       0.038700
     74 HBI1         4.7500     5.1090    10.6940 hc         1 GM3       0.036200
     75 HBI2         3.0370     4.9270    10.3790 hc         1 GM3       0.036200
     76 HBJ1         4.4410     7.5690    10.9960 hc         1 GM3       0.037700
     77 HBJ2         2.7300     7.4010    10.6640 hc         1 GM3       0.037700
     78 HBK1         2.4860     5.9090    12.6560 hc         1 GM3       0.036700
     79 HBK2         4.1970     6.0680    12.9890 hc         1 GM3       0.036700
     80 HBL1         2.2030     8.3810    12.9520 hc         1 GM3       0.037200
     81 HBL2         3.9120     8.5330    13.2960 hc         1 GM3       0.037200
     82 HBM1         1.9340     6.8810    14.9380 hc         1 GM3       0.036700
     83 HBM2         3.6430     7.0320    15.2840 hc         1 GM3       0.036700
     84 HBN1         3.3650     9.4990    15.5920 hc         1 GM3       0.037200
     85 HBN2         1.6580     9.3530    15.2360 hc         1 GM3       0.037200
     86 HBO1         1.3720     7.8490    17.2180 hc         1 GM3       0.036700
     87 HBO2         3.0790     8.0000    17.5770 hc         1 GM3       0.036700
     88 HBP1         1.0920    10.3190    17.5160 hc         1 GM3       0.036700
     89 HBP2         2.7970    10.4670    17.8830 hc         1 GM3       0.036700
     90 HBQ1         0.7990     8.8110    19.4970 hc         1 GM3       0.036700
     91 HBQ2         2.5020     8.9720    19.8680 hc         1 GM3       0.036700
     92 HB11         0.4990    11.2760    19.7950 hc         1 GM3       0.036700
     93 HB12         2.2000    11.4400    20.1640 hc         1 GM3       0.036700
     94 HB21         0.2090     9.7780    21.8040 hc         1 GM3       0.031367
     95 HB22         1.9160     9.9790    22.1870 hc         1 GM3       0.031367
     96 HB23         0.8300    11.3620    22.2590 hc         1 GM3       0.031367
     97 HAY          4.6440     4.5220     1.6180 h1         1 GM3       0.096700
     98 HAX1         3.2790     2.5830     2.2810 h1         1 GM3       0.045200
     99 HAX2         3.7710     1.6980     0.8390 h1         1 GM3       0.045200
    100 HAB          1.1860     1.9360     0.8780 h2         1 GM3       0.064700
    101 HAO         -0.6340     3.2100    -0.0710 h1         1 GM3       0.051700
    102 HAP          0.5990     2.1800    -1.6540 ho         1 GM3       0.403000
    103 HAQ          1.3870     5.4420    -0.5350 h1         1 GM3       0.076700
    104 HAR         -0.5680     6.4930    -1.2040 ho         1 GM3       0.418000
    105 HAS         -1.0160     5.2510     1.3250 h1         1 GM3       0.047700
    106 H1          -0.5440     7.3430     1.6970 ho         1 GM3       0.411000
    107 HAT          1.9700     5.3180     1.9700 h1         1 GM3       0.081700
    108 HAV1        -0.4580     4.9120     3.7650 h1         1 GM3       0.048200
    109 HAV2         0.5280     6.3720     3.6820 h1         1 GM3       0.048200
    110 HAW          1.5120     3.8480     4.4500 ho         1 GM3       0.412000
    111 HAZ          5.1620     2.9620    -0.8110 hn         1 GM3       0.311500
    112 HBS1         4.8350     5.1890    -2.6600 hc         1 GM3       0.058200
    113 HBS2         6.0350     3.9230    -2.5520 hc         1 GM3       0.058200
    114 HBU1         7.8200     5.6610    -2.1970 hc         1 GM3       0.053700
    115 HBU2         6.6080     6.9190    -2.3290 hc         1 GM3       0.053700
    116 HBV1         7.2790     4.8980    -4.5190 hc         1 GM3       0.036700
    117 HBV2         6.0720     6.1590    -4.6510 hc         1 GM3       0.036700
    118 HBW1         7.8460     7.8930    -4.3250 hc         1 GM3       0.039700
    119 HBW2         9.0530     6.6330    -4.1810 hc         1 GM3       0.039700
    120 HBX1         7.3290     7.1310    -6.6530 hc         1 GM3       0.036700
    121 HBX2         8.5310     5.8660    -6.5060 hc         1 GM3       0.036700
    122 HBY1        10.3070     7.5980    -6.1600 hc         1 GM3       0.037700
    123 HBY2         9.1060     8.8600    -6.3190 hc         1 GM3       0.037700
    124 HBZ1         8.6060     8.0910    -8.6490 hc         1 GM3       0.037200
    125 HBZ2         9.8030     6.8240    -8.4880 hc         1 GM3       0.037200
    126 HCA1        11.5820     8.5530    -8.1320 hc         1 GM3       0.037200
    127 HCA2        10.3840     9.8180    -8.3040 hc         1 GM3       0.037200
    128 HCB1         9.9010     9.0430   -10.6350 hc         1 GM3       0.037200
    129 HCB2        11.0950     7.7740   -10.4610 hc         1 GM3       0.037200
    130 HCC1        12.8740     9.4990   -10.0980 hc         1 GM3       0.037200
    131 HCC2        11.6810    10.7670   -10.2810 hc         1 GM3       0.037200
    132 HCD1        11.2130     9.9880   -12.6140 hc         1 GM3       0.037200
    133 HCD2        12.4030     8.7170   -12.4290 hc         1 GM3       0.037200
    134 HCE1        12.9930    11.7090   -12.2510 hc         1 GM3       0.037200
    135 HCE2        14.1830    10.4400   -12.0580 hc         1 GM3       0.037200
    136 HCF1        12.5370    10.9260   -14.5850 hc         1 GM3       0.037200
    137 HCF2        13.7240     9.6540   -14.3910 hc         1 GM3       0.037200
    138 HCG1        14.3170    12.6460   -14.2130 hc         1 GM3       0.037200
    139 HCG2        15.5040    11.3750   -14.0140 hc         1 GM3       0.037200
    140 HCH1        13.8710    11.8610   -16.5490 hc         1 GM3       0.036700
    141 HCH2        15.0560    10.5880   -16.3480 hc         1 GM3       0.036700
    142 HCI1        16.8370    12.3070   -15.9660 hc         1 GM3       0.037200
    143 HCI2        15.6510    13.5790   -16.1700 hc         1 GM3       0.037200
    144 HCJ1        15.2120    12.7930   -18.5060 hc         1 GM3       0.036700
    145 HCJ2        16.3960    11.5200   -18.3010 hc         1 GM3       0.036700
    146 HCK1        16.9940    14.5100   -18.1220 hc         1 GM3       0.036700
    147 HCK2        18.1770    13.2370   -17.9150 hc         1 GM3       0.036700
    148 HCL1        17.7410    12.4510   -20.2520 hc         1 GM3       0.036700
    149 HCL2        16.5590    13.7260   -20.4590 hc         1 GM3       0.036700
    150 HCM1        19.5240    14.1650   -19.8630 hc         1 GM3       0.036700
    151 HCM2        18.3430    15.4410   -20.0690 hc         1 GM3       0.036700
    152 HCN1        19.0860    13.3830   -22.2020 hc         1 GM3       0.036700
    153 HCN2        17.9080    14.6620   -22.4070 hc         1 GM3       0.036700
    154 HCO1        20.8730    15.0890   -21.8140 hc         1 GM3       0.036700
    155 HCO2        19.6980    16.3690   -22.0140 hc         1 GM3       0.036700
    156 HCP1        20.9710    16.0140   -24.1310 hc         1 GM3       0.031367
    157 HCP2        20.4600    14.3290   -24.1750 hc         1 GM3       0.031367
    158 HCP3        19.2740    15.6130   -24.3780 hc         1 GM3       0.031367
@<TRIPOS>BOND
     1     1     2 1   
     2     1    60 1   
     3     2     3 1   
     4     2    20 1   
     5     2    61 1   
     6     3     4 1   
     7     3    62 1   
     8     3    63 1   
     9     4     5 1   
    10     4    64 1   
    11     4    65 1   
    12     5     6 1   
    13     5    66 1   
    14     5    67 1   
    15     6     7 1   
    16     6    68 1   
    17     6    69 1   
    18     7     8 1   
    19     7    70 1   
    20     7    71 1   
    21     8     9 1   
    22     8    72 1   
    23     8    73 1   
    24     9    10 1   
    25     9    74 1   
    26     9    75 1   
    27    10    11 1   
    28    10    76 1   
    29    10    77 1   
    30    11    12 1   
    31    11    78 1   
    32    11    79 1   
    33    12    13 1   
    34    12    80 1   
    35    12    81 1   
    36    13    14 1   
    37    13    82 1   
    38    13    83 1   
    39    14    15 1   
    40    14    84 1   
    41    14    85 1   
    42    15    16 1   
    43    15    86 1   
    44    15    87 1   
    45    16    17 1   
    46    16    88 1   
    47    16    89 1   
    48    17    18 1   
    49    17    90 1   
    50    17    91 1   
    51    18    19 1   
    52    18    92 1   
    53    18    93 1   
    54    19    94 1   
    55    19    95 1   
    56    19    96 1   
    57    20    21 1   
    58    20    34 1   
    59    20    97 1   
    60    21    22 1   
    61    21    98 1   
    62    21    99 1   
    63    22    23 1   
    64    23    24 1   
    65    23    33 1   
    66    23   100 1   
    67    24    25 1   
    68    24    26 1   
    69    24   101 1   
    70    25   102 1   
    71    26    27 1   
    72    26    28 1   
    73    26   103 1   
    74    27   104 1   
    75    28    29 1   
    76    28    30 1   
    77    28   105 1   
    78    29   106 1   
    79    30    31 1   
    80    30    33 1   
    81    30   107 1   
    82    31    32 1   
    83    31   108 1   
    84    31   109 1   
    85    32   110 1   
    86    34    35 1   
    87    34   111 1   
    88    35    36 2   
    89    35    37 1   
    90    37    38 1   
    91    37   112 1   
    92    37   113 1   
    93    38    39 1   
    94    38   114 1   
    95    38   115 1   
    96    39    40 1   
    97    39   116 1   
    98    39   117 1   
    99    40    41 1   
   100    40   118 1   
   101    40   119 1   
   102    41    42 1   
   103    41   120 1   
   104    41   121 1   
   105    42    43 1   
   106    42   122 1   
   107    42   123 1   
   108    43    44 1   
   109    43   124 1   
   110    43   125 1   
   111    44    45 1   
   112    44   126 1   
   113    44   127 1   
   114    45    46 1   
   115    45   128 1   
   116    45   129 1   
   117    46    47 1   
   118    46   130 1   
   119    46   131 1   
   120    47    48 1   
   121    47   132 1   
   122    47   133 1   
   123    48    49 1   
   124    48   134 1   
   125    48   135 1   
   126    49    50 1   
   127    49   136 1   
   128    49   137 1   
   129    50    51 1   
   130    50   138 1   
   131    50   139 1   
   132    51    52 1   
   133    51   140 1   
   134    51   141 1   
   135    52    53 1   
   136    52   142 1   
   137    52   143 1   
   138    53    54 1   
   139    53   144 1   
   140    53   145 1   
   141    54    55 1   
   142    54   146 1   
   143    54   147 1   
   144    55    56 1   
   145    55   148 1   
   146    55   149 1   
   147    56    57 1   
   148    56   150 1   
   149    56   151 1   
   150    57    58 1   
   151    57   152 1   
   152    57   153 1   
   153    58    59 1   
   154    58   154 1   
   155    58   155 1   
   156    59   156 1   
   157    59   157 1   
   158    59   158 1   
@<TRIPOS>SUBSTRUCTURE
     1 GM3         1 TEMP              0 ****  ****    0 ROOT
