@<TRIPOS>MOLECULE
GM4
   48    50     1     0     0
SMALL
No Charge or Current Charge


@<TRIPOS>ATOM
      1 C02          0.0870     1.7900     0.7080 c6         1 GM4      -0.050700
      2 C04          0.3770    -0.4890     1.8110 c6         1 GM4      -0.057100
      3 C05          1.6510    -0.6450     0.9660 ca         1 GM4      -0.104300
      4 C06          1.9460     0.2230    -0.1200 ca         1 GM4      -0.021300
      5 C11          2.5410    -1.6800     1.3060 ca         1 GM4      -0.075000
      6 C12          0.9480     1.3460    -0.5230 c6         1 GM4       0.001300
      7 C13          1.6780     2.5850    -1.1400 c3         1 GM4      -0.081100
      8 C14         -0.0350     0.7710    -1.5880 c6         1 GM4      -0.067400
      9 C15         -0.8920    -0.3920    -1.0290 c6         1 GM4       0.176800
     10 C01          0.8920     2.5450     1.8150 c3         1 GM4      -0.085100
     11 C03         -0.6560     0.5460     1.2670 c6         1 GM4       0.198500
     12 C07          3.1290    -0.0050    -0.8630 ca         1 GM4      -0.144000
     13 C08          4.0090    -1.0400    -0.5170 ca         1 GM4       0.132100
     14 C10          3.7200    -1.8760     0.5690 ca         1 GM4      -0.204000
     15 C18         -3.6800    -1.2650    -0.2130 c2         1 GM4      -0.237200
     16 C19         -4.7370    -0.4570    -0.4200 c2         1 GM4      -0.089400
     17 C20         -4.9650     0.8750     0.2770 c3         1 GM4      -0.056400
     18 C21         -5.8420    -0.7950    -1.4030 c3         1 GM4      -0.056400
     19 N16         -1.5900    -0.0030     0.2290 n3         1 GM4      -0.733600
     20 O09          5.1440    -1.2350    -1.2460 oh         1 GM4      -0.536100
     21 H1          -0.6750     2.5070     0.3690 hc         1 GM4       0.061700
     22 H2          -0.0910    -1.4700     1.9540 hc         1 GM4       0.048700
     23 H3           0.6810    -0.1750     2.8180 hc         1 GM4       0.048700
     24 H4           2.3180    -2.3370     2.1440 ha         1 GM4       0.108000
     25 H5           2.5160     2.9140    -0.5140 hc         1 GM4       0.037033
     26 H6           2.0770     2.3730    -2.1390 hc         1 GM4       0.037033
     27 H7           0.9940     3.4350    -1.2520 hc         1 GM4       0.037033
     28 H8          -0.7040     1.5650    -1.9460 hc         1 GM4       0.048200
     29 H9           0.5210     0.4180    -2.4670 hc         1 GM4       0.048200
     30 H10         -1.6220    -0.6790    -1.8000 h1         1 GM4       0.035700
     31 H11         -0.2540    -1.2720    -0.8600 h1         1 GM4       0.035700
     32 H12          1.2370     3.5240     1.4620 hc         1 GM4       0.035367
     33 H13          0.2680     2.7270     2.6980 hc         1 GM4       0.035367
     34 H14          1.7750     1.9840     2.1410 hc         1 GM4       0.035367
     35 H15         -1.2630     0.8800     2.1230 h1         1 GM4       0.054700
     36 H16          3.3760     0.6100    -1.7220 ha         1 GM4       0.127000
     37 H17          4.3970    -2.6810     0.8440 ha         1 GM4       0.112000
     38 H18         -2.9210    -0.7380     1.7140 h1         1 GM4       0.030700
     39 H19         -1.9910    -1.9880     0.8830 h1         1 GM4       0.030700
     40 H20         -3.5990    -2.2030    -0.7610 ha         1 GM4       0.167000
     41 H21         -5.0190     1.6940    -0.4500 hc         1 GM4       0.039533
     42 H22         -5.9060     0.8670     0.8400 hc         1 GM4       0.039533
     43 H23         -4.1660     1.1240     0.9840 hc         1 GM4       0.039533
     44 H24         -5.9220    -0.0310    -2.1850 hc         1 GM4       0.039533
     45 H25         -5.6650    -1.7560    -1.9000 hc         1 GM4       0.039533
     46 H26         -6.8130    -0.8600    -0.8980 hc         1 GM4       0.039533
     47 H28          5.6300    -1.9960    -0.8620 ho         1 GM4       0.462000
     48 C17         -2.5200    -1.0370     0.7350 c3         1 GM4       0.219000
@<TRIPOS>BOND
     1     1     6 1   
     2     1    10 1   
     3     1    11 1   
     4     1    21 1   
     5     2     3 1   
     6     2    11 1   
     7     2    22 1   
     8     2    23 1   
     9     3     4 ar  
    10     3     5 ar  
    11     4     6 1   
    12     4    12 ar  
    13     5    14 ar  
    14     5    24 1   
    15     6     7 1   
    16     6     8 1   
    17     7    25 1   
    18     7    26 1   
    19     7    27 1   
    20     8     9 1   
    21     8    28 1   
    22     8    29 1   
    23     9    19 1   
    24     9    30 1   
    25     9    31 1   
    26    10    32 1   
    27    10    33 1   
    28    10    34 1   
    29    11    19 1   
    30    11    35 1   
    31    12    13 ar  
    32    12    36 1   
    33    13    14 ar  
    34    13    20 1   
    35    14    37 1   
    36    15    16 2   
    37    15    40 1   
    38    15    48 1   
    39    16    17 1   
    40    16    18 1   
    41    17    41 1   
    42    17    42 1   
    43    17    43 1   
    44    18    44 1   
    45    18    45 1   
    46    18    46 1   
    47    19    48 1   
    48    20    47 1   
    49    38    48 1   
    50    39    48 1   
@<TRIPOS>SUBSTRUCTURE
     1 GM4         1 TEMP              0 ****  ****    0 ROOT
