@<TRIPOS>MOLECULE
GM4
   48    50     1     0     0
SMALL
bcc


@<TRIPOS>ATOM
      1 C02          0.0450     1.7360     0.6910 c6         1 GM4      -0.050700
      2 C04          0.3510    -0.4730     1.8080 c6         1 GM4      -0.057100
      3 C05          1.5920    -0.6320     0.9680 ca         1 GM4      -0.104300
      4 C06          1.8890     0.2260    -0.0970 ca         1 GM4      -0.021300
      5 C11          2.4940    -1.6460     1.2800 ca         1 GM4      -0.093000
      6 C12          0.9050     1.3080    -0.5120 c6         1 GM4       0.001300
      7 C13          1.5950     2.5290    -1.1230 c3         1 GM4      -0.081100
      8 C14         -0.0550     0.7150    -1.5590 c6         1 GM4      -0.067400
      9 C15         -0.9050    -0.4160    -1.0080 c6         1 GM4       0.176800
     10 C01          0.8260     2.4660     1.7790 c3         1 GM4      -0.085100
     11 C03         -0.6790     0.5060     1.2360 c6         1 GM4       0.198500
     12 C07          3.0670     0.0340    -0.8170 ca         1 GM4      -0.162000
     13 C08          3.9550    -0.9860    -0.4950 ca         1 GM4       0.132100
     14 C10          3.6660    -1.8350     0.5680 ca         1 GM4      -0.222000
     15 C18         -3.6410    -1.2920    -0.2030 c2         1 GM4      -0.187200
     16 C19         -4.6350    -0.4260    -0.4130 c2         1 GM4      -0.089400
     17 C20         -4.7150     0.9200     0.2420 c3         1 GM4      -0.056400
     18 C21         -5.7630    -0.7430    -1.3490 c3         1 GM4      -0.056400
     19 N16         -1.5700    -0.0260     0.2170 n3         1 GM4      -0.733600
     20 O09          5.0760    -1.1080    -1.2430 oh         1 GM4      -0.497100
     21 H1          -0.7240     2.4150     0.3070 hc         1 GM4       0.061700
     22 H2          -0.1050    -1.4520     1.9800 hc         1 GM4       0.048700
     23 H3           0.6430    -0.1190     2.8030 hc         1 GM4       0.048700
     24 H4           2.2750    -2.3140     2.1060 ha         1 GM4       0.126000
     25 H5           2.4210     2.8910    -0.5090 hc         1 GM4       0.037033
     26 H6           1.9900     2.3200    -2.1190 hc         1 GM4       0.037033
     27 H7           0.8750     3.3420    -1.2300 hc         1 GM4       0.037033
     28 H8          -0.7080     1.5180    -1.9170 hc         1 GM4       0.048200
     29 H9           0.5120     0.3570    -2.4220 hc         1 GM4       0.048200
     30 H10         -1.6700    -0.6730    -1.7460 h1         1 GM4       0.035700
     31 H11         -0.2890    -1.3230    -0.8820 h1         1 GM4       0.035700
     32 H12          1.1410     3.4540     1.4440 hc         1 GM4       0.035367
     33 H13          0.2090     2.6030     2.6680 hc         1 GM4       0.035367
     34 H14          1.7240     1.9240     2.0810 hc         1 GM4       0.035367
     35 H15         -1.3220     0.8310     2.0630 h1         1 GM4       0.054700
     36 H16          3.3120     0.6810    -1.6500 ha         1 GM4       0.145000
     37 H17          4.3460    -2.6350     0.8390 ha         1 GM4       0.130000
     38 H18         -2.8210    -0.7420     1.6980 h1         1 GM4       0.030700
     39 H19         -1.9520    -2.0180     0.8680 h1         1 GM4       0.030700
     40 H20         -3.6700    -2.2410    -0.7300 ha         1 GM4       0.117000
     41 H21         -4.5900     1.7120    -0.5010 hc         1 GM4       0.039533
     42 H22         -5.7000     1.0680     0.6910 hc         1 GM4       0.039533
     43 H23         -3.9590     1.0700     1.0100 hc         1 GM4       0.039533
     44 H24         -5.8380     0.0090    -2.1390 hc         1 GM4       0.039533
     45 H25         -5.6450    -1.7180    -1.8210 hc         1 GM4       0.039533
     46 H26         -6.7210    -0.7340    -0.8230 hc         1 GM4       0.039533
     47 H28          5.6170    -1.8310    -0.9080 ho         1 GM4       0.423000
     48 C17         -2.4660    -1.0560     0.7100 c3         1 GM4       0.219000
@<TRIPOS>BOND
     1     1     6 1   
     2     1    10 1   
     3     1    11 1   
     4     1    21 1   
     5     2     3 1   
     6     2    11 1   
     7     2    22 1   
     8     2    23 1   
     9     3     4 ar  
    10     3     5 ar  
    11     4     6 1   
    12     4    12 ar  
    13     5    14 ar  
    14     5    24 1   
    15     6     7 1   
    16     6     8 1   
    17     7    25 1   
    18     7    26 1   
    19     7    27 1   
    20     8     9 1   
    21     8    28 1   
    22     8    29 1   
    23     9    19 1   
    24     9    30 1   
    25     9    31 1   
    26    10    32 1   
    27    10    33 1   
    28    10    34 1   
    29    11    19 1   
    30    11    35 1   
    31    12    13 ar  
    32    12    36 1   
    33    13    14 ar  
    34    13    20 1   
    35    14    37 1   
    36    15    16 2   
    37    15    40 1   
    38    15    48 1   
    39    16    17 1   
    40    16    18 1   
    41    17    41 1   
    42    17    42 1   
    43    17    43 1   
    44    18    44 1   
    45    18    45 1   
    46    18    46 1   
    47    19    48 1   
    48    20    47 1   
    49    38    48 1   
    50    39    48 1   
@<TRIPOS>SUBSTRUCTURE
     1 GM4         1 TEMP              0 ****  ****    0 ROOT
