@<TRIPOS>MOLECULE
GM5
   37    39     1     0     0
SMALL
No Charge or Current Charge


@<TRIPOS>ATOM
      1 C6           5.8310     0.3100    -1.4750 ca         1 GM5      -0.099000
      2 C5           7.2210     0.5000    -1.3970 ca         1 GM5      -0.098500
      3 C4           7.8850     0.3330    -0.1710 ca         1 GM5      -0.103000
      4 C2           5.7660    -0.2170     0.8990 ca         1 GM5      -0.099000
      5 C10         -0.8760    -0.1450     0.7100 cc         1 GM5       0.258500
      6 C12         -4.6240     1.7560    -0.2120 ca         1 GM5      -0.083000
      7 C13         -4.5650     0.3470    -0.0950 ca         1 GM5      -0.159600
      8 C14         -3.3200    -0.2540     0.2070 ca         1 GM5      -0.028000
      9 C15         -2.1480     0.5180     0.3810 ca         1 GM5      -0.111500
     10 C16         -2.2410     1.9220     0.2670 ca         1 GM5      -0.083000
     11 C17         -3.4690     2.5310    -0.0290 ca         1 GM5      -0.121000
     12 C1           5.0940    -0.0460    -0.3310 ca         1 GM5      -0.099000
     13 C3           7.1570    -0.0270     0.9750 ca         1 GM5      -0.098500
     14 N7           1.2040    -0.4970     1.0550 na         1 GM5       0.126800
     15 N8           0.5400    -1.6870     1.2430 nd         1 GM5      -0.177800
     16 N9          -0.7330    -1.4650     1.0250 nc         1 GM5      -0.342000
     17 C11          0.3190     0.5050     0.7150 cd         1 GM5      -0.189000
     18 N19         -6.9720     0.1100    -0.6270 ns         1 GM5      -0.377400
     19 O20         -8.1300    -0.6440    -1.0680 oh         1 GM5      -0.431100
     20 O21         -5.7420    -1.7460    -0.1150 o          1 GM5      -0.554100
     21 S22          3.3210    -0.2750    -0.5030 ss         1 GM5      -0.168000
     22 C23          2.6610    -0.3880     1.2250 c3         1 GM5       0.200600
     23 H1           5.3240     0.4410    -2.4290 ha         1 GM5       0.118500
     24 H2           7.7830     0.7770    -2.2870 ha         1 GM5       0.117500
     25 H3           8.9620     0.4790    -0.1090 ha         1 GM5       0.118000
     26 H4           5.2310    -0.5020     1.8000 ha         1 GM5       0.118500
     27 H5          -5.5570     2.2690    -0.4340 ha         1 GM5       0.115000
     28 H6          -3.2620    -1.3370     0.3020 ha         1 GM5       0.157000
     29 H7          -1.3700     2.5550     0.4120 ha         1 GM5       0.111000
     30 H8          -3.5270     3.6150    -0.1140 ha         1 GM5       0.117000
     31 H9           7.6720    -0.1600     1.9250 ha         1 GM5       0.117500
     32 H10          0.6060     1.5270     0.5080 h4         1 GM5       0.172000
     33 H11         -6.9430     1.0880    -0.9070 hn         1 GM5       0.331500
     34 H12         -8.8660    -0.2810    -0.5190 ho         1 GM5       0.448000
     35 H13          2.8960     0.5190     1.7910 h2         1 GM5       0.092200
     36 H14          3.0410    -1.2820     1.7290 h2         1 GM5       0.092200
     37 C18         -5.7870    -0.5320    -0.2780 c          1 GM5       0.608700
@<TRIPOS>BOND
     1     1     2 ar  
     2     1    12 ar  
     3     1    23 1   
     4     2     3 ar  
     5     2    24 1   
     6     3    13 ar  
     7     3    25 1   
     8     4    12 ar  
     9     4    13 ar  
    10     4    26 1   
    11     5     9 1   
    12     5    16 1   
    13     5    17 2   
    14     6     7 ar  
    15     6    11 ar  
    16     6    27 1   
    17     7     8 ar  
    18     7    37 1   
    19     8     9 ar  
    20     8    28 1   
    21     9    10 ar  
    22    10    11 ar  
    23    10    29 1   
    24    11    30 1   
    25    12    21 1   
    26    13    31 1   
    27    14    15 1   
    28    14    17 1   
    29    14    22 1   
    30    15    16 2   
    31    17    32 1   
    32    18    19 1   
    33    18    33 1   
    34    18    37 1   
    35    19    34 1   
    36    20    37 2   
    37    21    22 1   
    38    22    35 1   
    39    22    36 1   
@<TRIPOS>SUBSTRUCTURE
     1 GM5         1 TEMP              0 ****  ****    0 ROOT
