@<TRIPOS>MOLECULE
GM5
   37    39     1     0     0
SMALL
bcc


@<TRIPOS>ATOM
      1 C6           5.9220     0.0540    -1.4620 ca         1 GM5      -0.117000
      2 C5           7.2700    -0.2400    -1.3260 ca         1 GM5      -0.116500
      3 C4           7.8370    -0.3740    -0.0640 ca         1 GM5      -0.121000
      4 C2           5.6990     0.1180     0.9370 ca         1 GM5      -0.117000
      5 C10         -0.8530     0.2410     0.4300 cc         1 GM5       0.323800
      6 C12         -4.8450     1.6940     0.1950 ca         1 GM5      -0.101000
      7 C13         -4.5850     0.3340     0.0410 ca         1 GM5      -0.159600
      8 C14         -3.2800    -0.1350     0.1320 ca         1 GM5      -0.046000
      9 C15         -2.2220     0.7420     0.3500 ca         1 GM5      -0.111500
     10 C16         -2.4940     2.1040     0.4940 ca         1 GM5      -0.101000
     11 C17         -3.7950     2.5720     0.4230 ca         1 GM5      -0.139000
     12 C1           5.1300     0.2350    -0.3290 ca         1 GM5       0.027900
     13 C3           7.0450    -0.1990     1.0610 ca         1 GM5      -0.116500
     14 N7           1.2470    -0.0650     0.7190 na         1 GM5       0.105400
     15 N8           0.7380    -1.2060     0.2760 nd         1 GM5      -0.177800
     16 N9          -0.5200    -1.0330     0.1080 nc         1 GM5      -0.342000
     17 C11          0.2970     0.8790     0.8270 cd         1 GM5      -0.221600
     18 N19         -6.7540    -0.1820    -0.8140 ns         1 GM5      -0.444400
     19 O20         -7.7390    -1.0460    -1.1890 oh         1 GM5      -0.392100
     20 O21         -5.5790    -1.8210     0.2140 o          1 GM5      -0.554100
     21 S22          3.4360     0.6520    -0.5940 ss         1 GM5      -0.247000
     22 C23          2.6580     0.0640     0.9480 c3         1 GM5       0.123400
     23 H1           5.4870     0.1340    -2.4510 ha         1 GM5       0.136500
     24 H2           7.8760    -0.3770    -2.2120 ha         1 GM5       0.135500
     25 H3           8.8870    -0.6130     0.0400 ha         1 GM5       0.136000
     26 H4           5.1110     0.2740     1.8320 ha         1 GM5       0.136500
     27 H5          -5.8570     2.0760     0.1650 ha         1 GM5       0.133000
     28 H6          -3.0870    -1.1950     0.0280 ha         1 GM5       0.175000
     29 H7          -1.6870     2.8070     0.6590 ha         1 GM5       0.129000
     30 H8          -3.9930     3.6270     0.5490 ha         1 GM5       0.135000
     31 H9           7.4740    -0.3000     2.0500 ha         1 GM5       0.135500
     32 H10          0.5060     1.8770     1.1740 h4         1 GM5       0.190000
     33 H11         -6.6970     0.6490    -1.3870 hn         1 GM5       0.331500
     34 H12         -8.4600    -0.9140    -0.5600 ho         1 GM5       0.409000
     35 H13          2.8150     0.7660     1.7630 h2         1 GM5       0.092200
     36 H14          3.0590    -0.9100     1.2210 h2         1 GM5       0.092200
     37 C18         -5.6690    -0.6710    -0.1760 c          1 GM5       0.675700
@<TRIPOS>BOND
     1     1     2 ar  
     2     1    12 ar  
     3     1    23 1   
     4     2     3 ar  
     5     2    24 1   
     6     3    13 ar  
     7     3    25 1   
     8     4    12 ar  
     9     4    13 ar  
    10     4    26 1   
    11     5     9 1   
    12     5    16 1   
    13     5    17 2   
    14     6     7 ar  
    15     6    11 ar  
    16     6    27 1   
    17     7     8 ar  
    18     7    37 1   
    19     8     9 ar  
    20     8    28 1   
    21     9    10 ar  
    22    10    11 ar  
    23    10    29 1   
    24    11    30 1   
    25    12    21 1   
    26    13    31 1   
    27    14    15 1   
    28    14    17 1   
    29    14    22 1   
    30    15    16 2   
    31    17    32 1   
    32    18    19 1   
    33    18    33 1   
    34    18    37 1   
    35    19    34 1   
    36    20    37 2   
    37    21    22 1   
    38    22    35 1   
    39    22    36 1   
@<TRIPOS>SUBSTRUCTURE
     1 GM5         1 TEMP              0 ****  ****    0 ROOT
