@<TRIPOS>MOLECULE
GM6
   56    57     1     0     0
SMALL
No Charge or Current Charge


@<TRIPOS>ATOM
      1 OAG         -5.2480    -2.0270    -0.9530 oh         1 GM6      -0.426100
      2 NAF         -4.1650    -1.5910    -0.0950 ns         1 GM6      -0.390400
      3 CAD         -2.8940    -1.3540    -0.6090 c          1 GM6       0.602100
      4 OAE         -2.5580    -1.7300    -1.7250 o          1 GM6      -0.577100
      5 CAC         -1.9270    -0.6410     0.3470 c3         1 GM6      -0.145400
      6 CAB         -1.3710     0.7210    -0.1840 c3         1 GM6      -0.128700
      7 CAK         -0.0080     1.0300     0.4740 c          1 GM6       0.605100
      8 OAL          0.1160     1.1870     1.6820 o          1 GM6      -0.615100
      9 NAM          1.0560     1.1420    -0.3960 ns         1 GM6      -0.490900
     10 CAN          2.4620     1.3840     0.0050 c3         1 GM6       0.045700
     11 CAY          3.1250     2.4300    -0.9380 c          1 GM6       0.595100
     12 OAZ          2.6410     2.7670    -2.0130 o          1 GM6      -0.597100
     13 NBB          4.3100     2.9680    -0.4810 ns         1 GM6      -0.499900
     14 CBA          5.0980     3.9640    -1.2100 c3         1 GM6       0.095300
     15 CAO          3.2830     0.0670     0.0370 c3         1 GM6      -0.012200
     16 CAP          2.6590    -1.0300     0.8630 cc         1 GM6      -0.156400
     17 CAT          2.8180    -1.2530     2.2270 cd         1 GM6      -0.148100
     18 NAU          2.0360    -2.3670     2.6220 na         1 GM6      -0.219700
     19 CAR          1.4050    -2.8140     1.4760 ca         1 GM6      -0.045200
     20 CAV          0.5200    -3.8930     1.3480 ca         1 GM6      -0.124000
     21 CAX         -0.0060    -4.1750     0.0690 ca         1 GM6      -0.088000
     22 CAW          0.3610    -3.3820    -1.0430 ca         1 GM6      -0.132000
     23 CAS          1.2520    -2.3000    -0.8840 ca         1 GM6      -0.078000
     24 CAQ          1.7540    -2.0460     0.4010 ca         1 GM6      -0.103800
     25 CAA         -2.3320     1.9350     0.0140 c3         1 GM6      -0.075400
     26 CAH         -3.6540     1.9470    -0.8070 c3         1 GM6      -0.060700
     27 CAJ         -4.5270     3.1600    -0.4130 c3         1 GM6      -0.090100
     28 CAI         -3.4200     1.9230    -2.3370 c3         1 GM6      -0.090100
     29 HAG         -5.6260    -2.8030    -0.4740 ho         1 GM6       0.444000
     30 HAF         -4.4370    -1.1520     0.7830 hn         1 GM6       0.336500
     31 HAC1        -1.0800    -1.3210     0.4870 hc         1 GM6       0.073200
     32 HAC2        -2.3950    -0.4920     1.3260 hc         1 GM6       0.073200
     33 HAB         -1.1740     0.6090    -1.2560 hc         1 GM6       0.082700
     34 HAM          0.8510     1.0450    -1.3840 hn         1 GM6       0.337500
     35 HAN          2.4700     1.8190     1.0130 h1         1 GM6       0.053700
     36 HBB          4.6450     2.6500     0.4210 hn         1 GM6       0.314500
     37 HBA1         5.9920     4.2220    -0.6280 h1         1 GM6       0.040033
     38 HBA2         5.4050     3.5550    -2.1810 h1         1 GM6       0.040033
     39 HBA3         4.4970     4.8690    -1.3680 h1         1 GM6       0.040033
     40 HAO1         3.4250    -0.2880    -0.9910 hc         1 GM6       0.062700
     41 HAO2         4.2880     0.2790     0.4210 hc         1 GM6       0.062700
     42 HAT          3.4180    -0.6970     2.9430 h4         1 GM6       0.212000
     43 HAU          1.9520    -2.7550     3.5560 hn         1 GM6       0.352000
     44 HAV          0.2460    -4.4990     2.2090 ha         1 GM6       0.115000
     45 HAX         -0.6960    -5.0060    -0.0610 ha         1 GM6       0.114000
     46 HAW         -0.0500    -3.6040    -2.0260 ha         1 GM6       0.115000
     47 HAS          1.5370    -1.6840    -1.7330 ha         1 GM6       0.119000
     48 HAA1        -2.5790     2.0100     1.0810 hc         1 GM6       0.055200
     49 HAA2        -1.7790     2.8510    -0.2280 hc         1 GM6       0.055200
     50 HAH         -4.2330     1.0560    -0.5460 hc         1 GM6       0.044700
     51 HAJ1        -4.0190     4.1020    -0.6530 hc         1 GM6       0.035033
     52 HAJ2        -5.4840     3.1400    -0.9480 hc         1 GM6       0.035033
     53 HAJ3        -4.7440     3.1510     0.6620 hc         1 GM6       0.035033
     54 HAI1        -2.7880     2.7640    -2.6490 hc         1 GM6       0.035033
     55 HAI2        -2.9380     0.9920    -2.6540 hc         1 GM6       0.035033
     56 HAI3        -4.3730     1.9960    -2.8740 hc         1 GM6       0.035033
@<TRIPOS>BOND
     1     1     2 1   
     2     1    29 1   
     3     2     3 1   
     4     2    30 1   
     5     3     4 2   
     6     3     5 1   
     7     5     6 1   
     8     5    31 1   
     9     5    32 1   
    10     6     7 1   
    11     6    25 1   
    12     6    33 1   
    13     7     8 2   
    14     7     9 1   
    15     9    10 1   
    16     9    34 1   
    17    10    11 1   
    18    10    15 1   
    19    10    35 1   
    20    11    12 2   
    21    11    13 1   
    22    13    14 1   
    23    13    36 1   
    24    14    37 1   
    25    14    38 1   
    26    14    39 1   
    27    15    16 1   
    28    15    40 1   
    29    15    41 1   
    30    16    17 2   
    31    16    24 1   
    32    17    18 1   
    33    17    42 1   
    34    18    19 1   
    35    18    43 1   
    36    19    20 ar  
    37    19    24 ar  
    38    20    21 ar  
    39    20    44 1   
    40    21    22 ar  
    41    21    45 1   
    42    22    23 ar  
    43    22    46 1   
    44    23    24 ar  
    45    23    47 1   
    46    25    26 1   
    47    25    48 1   
    48    25    49 1   
    49    26    27 1   
    50    26    28 1   
    51    26    50 1   
    52    27    51 1   
    53    27    52 1   
    54    27    53 1   
    55    28    54 1   
    56    28    55 1   
    57    28    56 1   
@<TRIPOS>SUBSTRUCTURE
     1 GM6         1 TEMP              0 ****  ****    0 ROOT
