@<TRIPOS>MOLECULE
GM6
   56    57     1     0     0
SMALL
bcc


@<TRIPOS>ATOM
      1 OAG         -6.0390     0.3540     1.7440 oh         1 GM6      -0.387100
      2 NAF         -4.8490     1.0060     1.8590 ns         1 GM6      -0.457400
      3 CAD         -3.6940     0.3360     1.6820 c          1 GM6       0.669100
      4 OAE         -3.6330    -0.8760     1.5700 o          1 GM6      -0.577100
      5 CAC         -2.4700     1.2240     1.7240 c3         1 GM6      -0.145400
      6 CAB         -1.4730     0.9120     0.6080 c3         1 GM6      -0.128700
      7 CAK         -0.0770     1.3660     0.9960 c          1 GM6       0.672100
      8 OAL          0.1410     2.3310     1.7140 o          1 GM6      -0.615100
      9 NAM          0.9110     0.6490     0.4370 ns         1 GM6      -0.557900
     10 CAN          2.2990     1.0050     0.5560 c3         1 GM6       0.045700
     11 CAY          2.5100     2.4600     0.1340 c          1 GM6       0.662100
     12 OAZ          1.9650     2.9250    -0.8540 o          1 GM6      -0.597100
     13 NBB          3.3970     3.1350     0.8720 ns         1 GM6      -0.566900
     14 CBA          3.7780     4.4950     0.5700 c3         1 GM6       0.095300
     15 CAO          3.1550     0.1130    -0.3620 c3         1 GM6      -0.012200
     16 CAP          2.9220    -1.3490    -0.1570 cc         1 GM6      -0.156400
     17 CAT          3.5410    -2.1630     0.7500 cd         1 GM6      -0.098100
     18 NAU          3.0250    -3.4250     0.6780 na         1 GM6      -0.169400
     19 CAR          2.0540    -3.4650    -0.2780 ca         1 GM6      -0.045200
     20 CAV          1.2470    -4.5180    -0.7060 ca         1 GM6      -0.142000
     21 CAX          0.3330    -4.2550    -1.7070 ca         1 GM6      -0.106000
     22 CAW          0.2230    -2.9770    -2.2790 ca         1 GM6      -0.150000
     23 CAS          1.0280    -1.9370    -1.8570 ca         1 GM6      -0.096000
     24 CAQ          1.9600    -2.1700    -0.8360 ca         1 GM6      -0.103800
     25 CAA         -1.8220     1.6050    -0.7220 c3         1 GM6      -0.075400
     26 CAH         -3.0540     1.0790    -1.4610 c3         1 GM6      -0.060700
     27 CAJ         -3.3550     1.9880    -2.6500 c3         1 GM6      -0.090100
     28 CAI         -2.8680    -0.3600    -1.9300 c3         1 GM6      -0.090100
     29 HAG         -6.3240     0.1500     2.6440 ho         1 GM6       0.405000
     30 HAF         -4.9070     2.0110     1.7890 hn         1 GM6       0.336500
     31 HAC1        -2.0070     1.0390     2.6970 hc         1 GM6       0.073200
     32 HAC2        -2.7390     2.2820     1.7100 hc         1 GM6       0.073200
     33 HAB         -1.4490    -0.1710     0.4570 hc         1 GM6       0.082700
     34 HAM          0.6660    -0.1750    -0.0870 hn         1 GM6       0.337500
     35 HAN          2.6370     0.8610     1.5890 h1         1 GM6       0.053700
     36 HBB          3.7530     2.7160     1.7140 hn         1 GM6       0.314500
     37 HBA1         4.5610     4.7960     1.2600 h1         1 GM6       0.040033
     38 HBA2         4.1640     4.5820    -0.4450 h1         1 GM6       0.040033
     39 HBA3         2.9400     5.1850     0.6780 h1         1 GM6       0.040033
     40 HAO1         2.9530     0.3810    -1.4030 hc         1 GM6       0.062700
     41 HAO2         4.2020     0.3580    -0.1770 hc         1 GM6       0.062700
     42 HAT          4.3270    -1.9320     1.4510 h4         1 GM6       0.162000
     43 HAU          3.3230    -4.2010     1.2450 hn         1 GM6       0.301700
     44 HAV          1.3320    -5.5050    -0.2690 ha         1 GM6       0.133000
     45 HAX         -0.3120    -5.0500    -2.0590 ha         1 GM6       0.132000
     46 HAW         -0.5030    -2.8110    -3.0640 ha         1 GM6       0.133000
     47 HAS          0.9410    -0.9610    -2.3210 ha         1 GM6       0.137000
     48 HAA1        -1.9510     2.6740    -0.5220 hc         1 GM6       0.055200
     49 HAA2        -0.9650     1.5280    -1.4000 hc         1 GM6       0.055200
     50 HAH         -3.9210     1.1220    -0.7930 hc         1 GM6       0.044700
     51 HAJ1        -2.5260     1.9840    -3.3620 hc         1 GM6       0.035033
     52 HAJ2        -4.2500     1.6600    -3.1800 hc         1 GM6       0.035033
     53 HAJ3        -3.5170     3.0190    -2.3330 hc         1 GM6       0.035033
     54 HAI1        -2.0160    -0.4340    -2.6110 hc         1 GM6       0.035033
     55 HAI2        -2.6960    -1.0540    -1.1070 hc         1 GM6       0.035033
     56 HAI3        -3.7500    -0.7120    -2.4670 hc         1 GM6       0.035033
@<TRIPOS>BOND
     1     1     2 1   
     2     1    29 1   
     3     2     3 1   
     4     2    30 1   
     5     3     4 2   
     6     3     5 1   
     7     5     6 1   
     8     5    31 1   
     9     5    32 1   
    10     6     7 1   
    11     6    25 1   
    12     6    33 1   
    13     7     8 2   
    14     7     9 1   
    15     9    10 1   
    16     9    34 1   
    17    10    11 1   
    18    10    15 1   
    19    10    35 1   
    20    11    12 2   
    21    11    13 1   
    22    13    14 1   
    23    13    36 1   
    24    14    37 1   
    25    14    38 1   
    26    14    39 1   
    27    15    16 1   
    28    15    40 1   
    29    15    41 1   
    30    16    17 2   
    31    16    24 1   
    32    17    18 1   
    33    17    42 1   
    34    18    19 1   
    35    18    43 1   
    36    19    20 ar  
    37    19    24 ar  
    38    20    21 ar  
    39    20    44 1   
    40    21    22 ar  
    41    21    45 1   
    42    22    23 ar  
    43    22    46 1   
    44    23    24 ar  
    45    23    47 1   
    46    25    26 1   
    47    25    48 1   
    48    25    49 1   
    49    26    27 1   
    50    26    28 1   
    51    26    50 1   
    52    27    51 1   
    53    27    52 1   
    54    27    53 1   
    55    28    54 1   
    56    28    55 1   
    57    28    56 1   
@<TRIPOS>SUBSTRUCTURE
     1 GM6         1 TEMP              0 ****  ****    0 ROOT
