@<TRIPOS>MOLECULE
GM7
   18    18     1     0     0
SMALL
No Charge or Current Charge


@<TRIPOS>ATOM
      1 C10         -0.8380    -1.7170     0.1790 c          1 GM7       0.753600
      2 C13          1.5380    -0.8440     0.0890 ca         1 GM7      -0.176000
      3 C02          2.4740     0.1950     0.0130 ca         1 GM7       0.205000
      4 C03          2.0410     1.5210    -0.1000 ca         1 GM7      -0.229000
      5 C04          0.6670     1.8100    -0.1450 ca         1 GM7      -0.087000
      6 C05         -0.2880     0.7720    -0.0770 ca         1 GM7      -0.135600
      7 C06         -1.7570     1.1090    -0.1700 c          1 GM7       0.715600
      8 C09          0.1500    -0.5730     0.0510 ca         1 GM7      -0.049600
      9 N01          3.8120    -0.0770     0.0560 nv         1 GM7      -1.085000
     10 O07         -2.1980     1.9760     0.5720 o          1 GM7      -0.736500
     11 O08         -2.4140     0.5890    -1.0610 o          1 GM7      -0.736500
     12 O11         -0.7220    -2.6720    -0.5810 o          1 GM7      -0.743500
     13 O12         -1.6320    -1.6990     1.1120 o          1 GM7      -0.743500
     14 H1           1.8780    -1.8720     0.1890 ha         1 GM7       0.086000
     15 H2           2.7610     2.3330    -0.1580 ha         1 GM7       0.055000
     16 H3           0.3380     2.8420    -0.2450 ha         1 GM7       0.099000
     17 H4           4.4880     0.6840     0.0890 hn         1 GM7       0.403000
     18 H5           4.1400    -1.0260     0.2270 hn         1 GM7       0.403000
@<TRIPOS>BOND
     1     1     8 1   
     2     1    12 1   
     3     1    13 1   
     4     2     3 ar  
     5     2     8 ar  
     6     2    14 1   
     7     3     4 ar  
     8     3     9 1   
     9     4     5 ar  
    10     4    15 1   
    11     5     6 ar  
    12     5    16 1   
    13     6     7 1   
    14     6     8 ar  
    15     7    10 1   
    16     7    11 1   
    17     9    17 1   
    18     9    18 1   
@<TRIPOS>SUBSTRUCTURE
     1 GM7         1 TEMP              0 ****  ****    0 ROOT
