@<TRIPOS>MOLECULE
GM7
   18    18     1     0     0
SMALL
bcc


@<TRIPOS>ATOM
      1 C10         -0.7850    -1.7390     0.1490 c          1 GM7       0.964200
      2 C13          1.5080    -0.8200     0.0160 ca         1 GM7      -0.194000
      3 C02          2.4690     0.1940    -0.0210 ca         1 GM7       0.066600
      4 C03          2.0240     1.5190    -0.0810 ca         1 GM7      -0.247000
      5 C04          0.6670     1.7890    -0.1050 ca         1 GM7      -0.105000
      6 C05         -0.2970     0.7820    -0.0760 ca         1 GM7      -0.135600
      7 C06         -1.7610     1.1530    -0.1850 c          1 GM7       0.926200
      8 C09          0.1430    -0.5450    -0.0010 ca         1 GM7      -0.049600
      9 N01          3.8180    -0.1050    -0.0520 nv         1 GM7      -0.836200
     10 O07         -2.0690     2.3330     0.0900 o          1 GM7      -0.841800
     11 O08         -2.5440     0.2620    -0.5670 o          1 GM7      -0.841800
     12 O11         -0.8440    -2.5240    -0.8170 o          1 GM7      -0.848800
     13 O12         -1.3170    -1.8750     1.2660 o          1 GM7      -0.848800
     14 H1           1.8430    -1.8510     0.0720 ha         1 GM7       0.104000
     15 H2           2.7430     2.3300    -0.1120 ha         1 GM7       0.073000
     16 H3           0.3410     2.8200    -0.1550 ha         1 GM7       0.117000
     17 H4           4.4280     0.6260     0.2780 hn         1 GM7       0.347800
     18 H5           4.0710    -0.9970     0.3410 hn         1 GM7       0.347800
@<TRIPOS>BOND
     1     1     8 1   
     2     1    12 1   
     3     1    13 1   
     4     2     3 ar  
     5     2     8 ar  
     6     2    14 1   
     7     3     4 ar  
     8     3     9 1   
     9     4     5 ar  
    10     4    15 1   
    11     5     6 ar  
    12     5    16 1   
    13     6     7 1   
    14     6     8 ar  
    15     7    10 1   
    16     7    11 1   
    17     9    17 1   
    18     9    18 1   
@<TRIPOS>SUBSTRUCTURE
     1 GM7         1 TEMP              0 ****  ****    0 ROOT
