@<TRIPOS>MOLECULE
GM8
   31    31     1     0     0
SMALL
abcg2


@<TRIPOS>ATOM
      1 O           -2.1430    -1.1520     1.0460 o          1 GM8      -0.741500
      2 C           -1.7570    -0.9140    -0.1170 c          1 GM8       0.711000
      3 CA          -1.0050     0.4130    -0.3460 c3         1 GM8      -0.189700
      4 CZ          -1.8170     1.5810     0.2180 c3         1 GM8      -0.048400
      5 CQ          -3.1720     1.7580    -0.4560 c3         1 GM8      -0.077100
      6 CB           0.4140     0.3690     0.2620 c6         1 GM8      -0.023700
      7 CG           1.1340    -0.9740     0.0470 c6         1 GM8       0.170500
      8 N            1.2450    -1.2730    -1.3780 n8         1 GM8      -1.014200
      9 CD1          2.5250    -0.9460     0.6810 c6         1 GM8      -0.073400
     10 CE1          3.3860     0.2000     0.1630 c6         1 GM8      -0.063400
     11 CE2          2.6730     1.5300     0.3630 c6         1 GM8      -0.067400
     12 CD2          1.2810     1.5180    -0.2630 c6         1 GM8      -0.071400
     13 OXT         -1.9190    -1.6650    -1.1060 o          1 GM8      -0.741500
     14 HG          -0.8990     0.5660    -1.4270 hc         1 GM8       0.038700
     15 HZ1         -1.9570     1.4270     1.2910 hc         1 GM8       0.019200
     16 HZ2         -1.2540     2.5120     0.1150 hc         1 GM8       0.019200
     17 HQ3         -3.0620     1.9200    -1.5300 hc         1 GM8       0.020033
     18 HQ2         -3.8120     0.8850    -0.3170 hc         1 GM8       0.020033
     19 HQ1         -3.7060     2.6190    -0.0490 hc         1 GM8       0.020033
     20 HB           0.3090     0.4900     1.3490 hc         1 GM8       0.039700
     21 HA           0.5600    -1.7460     0.5810 h1         1 GM8       0.048700
     22 H2           1.7710    -2.1310    -1.4920 hn         1 GM8       0.400500
     23 H3           0.3170    -1.4720    -1.7340 hn         1 GM8       0.400500
     24 HD12         2.4070    -0.8500     1.7650 hc         1 GM8       0.023700
     25 HD11         3.0190    -1.9080     0.5120 hc         1 GM8       0.023700
     26 HE12         4.3520     0.2040     0.6740 hc         1 GM8       0.026700
     27 HE11         3.5940     0.0520    -0.9000 hc         1 GM8       0.026700
     28 HE22         2.5830     1.7340     1.4370 hc         1 GM8       0.017200
     29 HE21         3.2640     2.3490    -0.0570 hc         1 GM8       0.017200
     30 HD21         1.3730     1.4230    -1.3490 hc         1 GM8       0.035200
     31 HD22         0.7970     2.4790    -0.0740 hc         1 GM8       0.035200
@<TRIPOS>BOND
     1     1     2 1   
     2     2     3 1   
     3     2    13 1   
     4     3     4 1   
     5     3     6 1   
     6     3    14 1   
     7     4     5 1   
     8     4    15 1   
     9     4    16 1   
    10     5    17 1   
    11     5    18 1   
    12     5    19 1   
    13     6     7 1   
    14     6    12 1   
    15     6    20 1   
    16     7     8 1   
    17     7     9 1   
    18     7    21 1   
    19     8    22 1   
    20     8    23 1   
    21     9    10 1   
    22     9    24 1   
    23     9    25 1   
    24    10    11 1   
    25    10    26 1   
    26    10    27 1   
    27    11    12 1   
    28    11    28 1   
    29    11    29 1   
    30    12    30 1   
    31    12    31 1   
@<TRIPOS>SUBSTRUCTURE
     1 GM8         1 TEMP              0 ****  ****    0 ROOT
