@<TRIPOS>MOLECULE
GM8
   31    31     1     0     0
SMALL
No Charge or Current Charge


@<TRIPOS>ATOM
      1 O           -2.0450    -1.1990     1.1120 o          1 GM8      -0.741500
      2 C           -1.7990    -0.8970    -0.0470 c          1 GM8       0.711000
      3 CA          -1.0200     0.4130    -0.3240 c3         1 GM8      -0.189700
      4 CZ          -1.8580     1.6550     0.1090 c3         1 GM8      -0.048400
      5 CQ          -3.2750     1.7100    -0.5010 c3         1 GM8      -0.077100
      6 CB           0.4370     0.3730     0.2830 c6         1 GM8      -0.023700
      7 CG           1.1760    -0.9890     0.0160 c6         1 GM8       0.170500
      8 N            1.2420    -1.3190    -1.4280 n8         1 GM8      -1.014200
      9 CD1          2.5960    -0.9950     0.6460 c6         1 GM8      -0.073400
     10 CE1          3.4540     0.2060     0.1770 c6         1 GM8      -0.063400
     11 CE2          2.7310     1.5430     0.4600 c6         1 GM8      -0.067400
     12 CD2          1.3220     1.5760    -0.1830 c6         1 GM8      -0.071400
     13 OXT         -2.1200    -1.5890    -1.0020 o          1 GM8      -0.741500
     14 HG          -0.9150     0.4870    -1.4140 hc         1 GM8       0.038700
     15 HZ1         -1.9410     1.6780     1.2030 hc         1 GM8       0.019200
     16 HZ2         -1.3410     2.5740    -0.1870 hc         1 GM8       0.019200
     17 HQ3         -3.2280     1.6770    -1.5960 hc         1 GM8       0.020033
     18 HQ2         -3.8910     0.8730    -0.1530 hc         1 GM8       0.020033
     19 HQ1         -3.7760     2.6410    -0.2090 hc         1 GM8       0.020033
     20 HB           0.3070     0.4600     1.3710 hc         1 GM8       0.039700
     21 HA           0.6040    -1.7990     0.4950 h1         1 GM8       0.048700
     22 H2           1.6070    -2.2710    -1.5300 hn         1 GM8       0.400500
     23 H3           0.2770    -1.3920    -1.7720 hn         1 GM8       0.400500
     24 HD12         2.5040    -0.9660     1.7410 hc         1 GM8       0.023700
     25 HD11         3.1130    -1.9370     0.4120 hc         1 GM8       0.023700
     26 HE12         4.4250     0.1930     0.6910 hc         1 GM8       0.026700
     27 HE11         3.6700     0.1200    -0.8970 hc         1 GM8       0.026700
     28 HE22         2.6450     1.6920     1.5460 hc         1 GM8       0.017200
     29 HE21         3.3340     2.3780     0.0790 hc         1 GM8       0.017200
     30 HD21         1.4160     1.5750    -1.2770 hc         1 GM8       0.035200
     31 HD22         0.8510     2.5300     0.0850 hc         1 GM8       0.035200
@<TRIPOS>BOND
     1     1     2 1   
     2     2     3 1   
     3     2    13 1   
     4     3     4 1   
     5     3     6 1   
     6     3    14 1   
     7     4     5 1   
     8     4    15 1   
     9     4    16 1   
    10     5    17 1   
    11     5    18 1   
    12     5    19 1   
    13     6     7 1   
    14     6    12 1   
    15     6    20 1   
    16     7     8 1   
    17     7     9 1   
    18     7    21 1   
    19     8    22 1   
    20     8    23 1   
    21     9    10 1   
    22     9    24 1   
    23     9    25 1   
    24    10    11 1   
    25    10    26 1   
    26    10    27 1   
    27    11    12 1   
    28    11    28 1   
    29    11    29 1   
    30    12    30 1   
    31    12    31 1   
@<TRIPOS>SUBSTRUCTURE
     1 GM8         1 TEMP              0 ****  ****    0 ROOT
