@<TRIPOS>MOLECULE
GM9
   60    62     1     0     0
SMALL
No Charge or Current Charge


@<TRIPOS>ATOM
      1 C01         89.0560   111.7660   119.1860 c3         1 GM9       0.000300
      2 C02         87.7860   112.2680   119.9230 ca         1 GM9      -0.064300
      3 C03         84.1920   113.8000   121.9240 c3         1 GM9       0.255100
      4 C04         85.4480   113.2730   121.2210 ca         1 GM9      -0.121300
      5 C05         90.3180   112.3170   119.9030 c3         1 GM9      -0.081433
      6 C06         89.0310   112.2770   117.7200 c3         1 GM9      -0.081433
      7 C07         89.1660   110.2150   119.1480 c3         1 GM9      -0.081433
      8 C08         86.8390   111.3910   120.5070 ca         1 GM9      -0.114500
      9 C09         87.5460   113.6570   120.0320 ca         1 GM9      -0.114500
     10 C10         83.4490   115.7110   120.4570 c3         1 GM9       0.264100
     11 C11         85.6940   111.8890   121.1510 ca         1 GM9      -0.096500
     12 C12         86.4020   114.1520   120.6780 ca         1 GM9      -0.096500
     13 C13         83.8010   116.7820   121.4930 ca         1 GM9      -0.070300
     14 C14         83.0650   113.6090   118.4080 ca         1 GM9      -0.340500
     15 C15         83.0140   116.9440   122.6520 ca         1 GM9      -0.193000
     16 C16         84.9030   117.6360   121.2870 ca         1 GM9      -0.184000
     17 C17         82.5300   114.5460   117.5060 ca         1 GM9       0.023000
     18 C18         84.1980   112.8740   118.0500 ca         1 GM9       0.431900
     19 C19         83.3360   117.9340   123.6050 ca         1 GM9       0.177100
     20 C20         85.2260   118.6240   122.2320 ca         1 GM9      -0.085000
     21 C21         84.4440   118.7690   123.3890 ca         1 GM9      -0.158000
     22 C22         83.1800   114.7130   116.2760 ca         1 GM9      -0.184000
     23 C23         84.3170   113.9410   115.9950 ca         1 GM9       0.378900
     24 C24         81.4440   117.3120   125.0800 c3         1 GM9      -0.004400
     25 C25         80.7750   117.7050   126.4300 c          1 GM9       0.731000
     26 N01         83.1480   114.3820   121.0360 n3         1 GM9      -0.757500
     27 N02         84.8200   113.0310   116.8580 nb         1 GM9      -0.690000
     28 O01         80.9230   113.7640   119.9920 o          1 GM9      -0.528500
     29 O02         82.6630   111.9510   120.4150 o          1 GM9      -0.528500
     30 O03         82.6000   118.1240   124.7580 os         1 GM9      -0.292100
     31 O04         79.7880   117.0680   126.7780 o          1 GM9      -0.710000
     32 O05         81.2440   118.6220   127.0940 o          1 GM9      -0.710000
     33 S01         82.3180   113.3130   119.9970 sy         1 GM9       1.185600
     34 H1          83.7570   112.9850   122.5190 h1         1 GM9       0.084700
     35 H2          84.5160   114.5460   122.6630 h1         1 GM9       0.084700
     36 H3          90.3500   113.4120   119.8820 hc         1 GM9       0.034144
     37 H4          90.3360   111.9980   120.9520 hc         1 GM9       0.034144
     38 H5          91.2340   111.9510   119.4220 hc         1 GM9       0.034144
     39 H6          89.0490   113.3720   117.6720 hc         1 GM9       0.034144
     40 H7          89.8990   111.9090   117.1600 hc         1 GM9       0.034144
     41 H8          88.1250   111.9320   117.2060 hc         1 GM9       0.034144
     42 H9          89.2180   109.7970   120.1610 hc         1 GM9       0.034144
     43 H10         88.3070   109.7700   118.6300 hc         1 GM9       0.034144
     44 H11         90.0710   109.9000   118.6150 hc         1 GM9       0.034144
     45 H12         86.9660   110.3140   120.4720 ha         1 GM9       0.111500
     46 H13         88.2510   114.3710   119.6150 ha         1 GM9       0.111500
     47 H14         84.2610   115.6340   119.7220 h1         1 GM9       0.052700
     48 H15         82.5700   116.0830   119.9130 h1         1 GM9       0.052700
     49 H16         84.9860   111.1870   121.5880 ha         1 GM9       0.120500
     50 H17         86.2640   115.2260   120.7570 ha         1 GM9       0.120500
     51 H18         82.1600   116.2880   122.7980 ha         1 GM9       0.131000
     52 H19         85.5120   117.5380   120.3910 ha         1 GM9       0.090000
     53 H20         81.6420   115.1300   117.7470 ha         1 GM9       0.127000
     54 H21         84.6270   112.1250   118.7140 h4         1 GM9       0.046100
     55 H22         86.0800   119.2770   122.0670 ha         1 GM9       0.096000
     56 H23         84.6940   119.5320   124.1200 ha         1 GM9       0.128000
     57 H24         82.8120   115.4270   115.5450 ha         1 GM9       0.122000
     58 H25         84.8400   114.0490   115.0450 h4         1 GM9       0.013100
     59 H26         80.6840   117.4100   124.2940 h1         1 GM9       0.021700
     60 H27         81.7320   116.2550   125.1480 h1         1 GM9       0.021700
@<TRIPOS>BOND
     1     1     2 1   
     2     1     5 1   
     3     1     6 1   
     4     1     7 1   
     5     2     8 ar  
     6     2     9 ar  
     7     3     4 1   
     8     3    26 1   
     9     3    34 1   
    10     3    35 1   
    11     4    11 ar  
    12     4    12 ar  
    13     5    36 1   
    14     5    37 1   
    15     5    38 1   
    16     6    39 1   
    17     6    40 1   
    18     6    41 1   
    19     7    42 1   
    20     7    43 1   
    21     7    44 1   
    22     8    11 ar  
    23     8    45 1   
    24     9    12 ar  
    25     9    46 1   
    26    10    13 1   
    27    10    26 1   
    28    10    47 1   
    29    10    48 1   
    30    11    49 1   
    31    12    50 1   
    32    13    15 ar  
    33    13    16 ar  
    34    14    17 ar  
    35    14    18 ar  
    36    14    33 1   
    37    15    19 ar  
    38    15    51 1   
    39    16    20 ar  
    40    16    52 1   
    41    17    22 ar  
    42    17    53 1   
    43    18    27 ar  
    44    18    54 1   
    45    19    21 ar  
    46    19    30 1   
    47    20    21 ar  
    48    20    55 1   
    49    21    56 1   
    50    22    23 ar  
    51    22    57 1   
    52    23    27 ar  
    53    23    58 1   
    54    24    25 1   
    55    24    30 1   
    56    24    59 1   
    57    24    60 1   
    58    25    31 1   
    59    25    32 1   
    60    26    33 1   
    61    28    33 2   
    62    29    33 2   
@<TRIPOS>SUBSTRUCTURE
     1 GM9         1 TEMP              0 ****  ****    0 ROOT
