@<TRIPOS>MOLECULE
GM9
   60    62     1     0     0
SMALL
abcg2


@<TRIPOS>ATOM
      1 C01         88.9740   112.1460   118.4750 c3         1 GM9       0.000300
      2 C02         87.8590   112.6110   119.4050 ca         1 GM9      -0.064300
      3 C03         84.6570   114.0740   121.9370 c3         1 GM9       0.255100
      4 C04         85.7960   113.5570   121.0990 ca         1 GM9      -0.121300
      5 C05         90.3320   112.3450   119.1620 c3         1 GM9      -0.081433
      6 C06         88.9300   112.9750   117.1850 c3         1 GM9      -0.081433
      7 C07         88.8390   110.6690   118.1040 c3         1 GM9      -0.081433
      8 C08         86.8250   111.7770   119.8230 ca         1 GM9      -0.114500
      9 C09         87.8510   113.9240   119.8810 ca         1 GM9      -0.114500
     10 C10         83.9470   116.1290   120.7120 c3         1 GM9       0.264100
     11 C11         85.8150   112.2410   120.6570 ca         1 GM9      -0.096500
     12 C12         86.8470   114.3870   120.7160 ca         1 GM9      -0.096500
     13 C13         83.9860   117.1070   121.8580 ca         1 GM9      -0.070300
     14 C14         83.1010   113.0740   119.0920 ca         1 GM9      -0.340500
     15 C15         82.9480   117.1170   122.7890 ca         1 GM9      -0.193000
     16 C16         85.0270   118.0150   121.9650 ca         1 GM9      -0.184000
     17 C17         83.7720   113.7770   118.1000 ca         1 GM9       0.023000
     18 C18         83.0120   111.6920   119.0060 ca         1 GM9       0.431900
     19 C19         82.9450   118.0450   123.8260 ca         1 GM9       0.177100
     20 C20         85.0190   118.9470   122.9990 ca         1 GM9      -0.085000
     21 C21         83.9930   118.9680   123.9230 ca         1 GM9      -0.158000
     22 C22         84.3540   113.0560   117.0750 ca         1 GM9      -0.184000
     23 C23         84.2240   111.6730   117.0800 ca         1 GM9       0.378900
     24 C24         80.9510   117.1670   124.7690 c3         1 GM9      -0.004400
     25 C25         79.9740   117.4110   125.9360 c          1 GM9       0.731000
     26 N01         83.6260   114.7830   121.1680 n3         1 GM9      -0.757500
     27 N02         83.5600   111.0040   118.0130 nb         1 GM9      -0.690000
     28 O01         81.4480   114.9050   119.9570 o          1 GM9      -0.528500
     29 O02         81.9560   112.9360   121.4270 o          1 GM9      -0.528500
     30 O03         81.9900   118.1280   124.7650 os         1 GM9      -0.292100
     31 O04         79.0820   116.5440   126.0130 o          1 GM9      -0.710000
     32 O05         80.1470   118.4080   126.6510 o          1 GM9      -0.710000
     33 S01         82.4020   113.9390   120.4760 sy         1 GM9       1.185600
     34 H1          84.1870   113.2630   122.4920 h1         1 GM9       0.084700
     35 H2          85.0200   114.7850   122.6830 h1         1 GM9       0.084700
     36 H3          90.5170   113.3900   119.4130 hc         1 GM9       0.034144
     37 H4          90.3950   111.7610   120.0820 hc         1 GM9       0.034144
     38 H5          91.1400   112.0190   118.5020 hc         1 GM9       0.034144
     39 H6          89.0730   114.0390   117.3790 hc         1 GM9       0.034144
     40 H7          89.7220   112.6560   116.5040 hc         1 GM9       0.034144
     41 H8          87.9760   112.8530   116.6700 hc         1 GM9       0.034144
     42 H9          88.8800   110.0230   118.9830 hc         1 GM9       0.034144
     43 H10         87.9060   110.4620   117.5750 hc         1 GM9       0.034144
     44 H11         89.6590   110.3800   117.4450 hc         1 GM9       0.034144
     45 H12         86.7880   110.7440   119.5040 ha         1 GM9       0.111500
     46 H13         88.6440   114.6080   119.6030 ha         1 GM9       0.111500
     47 H14         84.8990   116.1360   120.1750 h1         1 GM9       0.052700
     48 H15         83.1930   116.4530   119.9950 h1         1 GM9       0.052700
     49 H16         85.0360   111.5570   120.9710 ha         1 GM9       0.120500
     50 H17         86.8920   115.4070   121.0810 ha         1 GM9       0.120500
     51 H18         82.1550   116.3880   122.6870 ha         1 GM9       0.131000
     52 H19         85.8410   118.0000   121.2490 ha         1 GM9       0.090000
     53 H20         83.8560   114.8560   118.1220 ha         1 GM9       0.127000
     54 H21         82.4900   111.1200   119.7630 h4         1 GM9       0.046100
     55 H22         85.8290   119.6590   123.0890 ha         1 GM9       0.096000
     56 H23         83.9930   119.6890   124.7310 ha         1 GM9       0.128000
     57 H24         84.8980   113.5520   116.2840 ha         1 GM9       0.122000
     58 H25         84.6740   111.0840   116.2900 h4         1 GM9       0.013100
     59 H26         80.3870   117.2030   123.8290 h1         1 GM9       0.021700
     60 H27         81.3660   116.1550   124.8520 h1         1 GM9       0.021700
@<TRIPOS>BOND
     1     1     2 1   
     2     1     5 1   
     3     1     6 1   
     4     1     7 1   
     5     2     8 ar  
     6     2     9 ar  
     7     3     4 1   
     8     3    26 1   
     9     3    34 1   
    10     3    35 1   
    11     4    11 ar  
    12     4    12 ar  
    13     5    36 1   
    14     5    37 1   
    15     5    38 1   
    16     6    39 1   
    17     6    40 1   
    18     6    41 1   
    19     7    42 1   
    20     7    43 1   
    21     7    44 1   
    22     8    11 ar  
    23     8    45 1   
    24     9    12 ar  
    25     9    46 1   
    26    10    13 1   
    27    10    26 1   
    28    10    47 1   
    29    10    48 1   
    30    11    49 1   
    31    12    50 1   
    32    13    15 ar  
    33    13    16 ar  
    34    14    17 ar  
    35    14    18 ar  
    36    14    33 1   
    37    15    19 ar  
    38    15    51 1   
    39    16    20 ar  
    40    16    52 1   
    41    17    22 ar  
    42    17    53 1   
    43    18    27 ar  
    44    18    54 1   
    45    19    21 ar  
    46    19    30 1   
    47    20    21 ar  
    48    20    55 1   
    49    21    56 1   
    50    22    23 ar  
    51    22    57 1   
    52    23    27 ar  
    53    23    58 1   
    54    24    25 1   
    55    24    30 1   
    56    24    59 1   
    57    24    60 1   
    58    25    31 1   
    59    25    32 1   
    60    26    33 1   
    61    28    33 2   
    62    29    33 2   
@<TRIPOS>SUBSTRUCTURE
     1 GM9         1 TEMP              0 ****  ****    0 ROOT
