@<TRIPOS>MOLECULE
GMA
   19    18     1     0     0
SMALL
No Charge or Current Charge


@<TRIPOS>ATOM
      1 N            0.8460    19.1860     3.8040 n8         1 GMA      -0.891800
      2 CA           1.3160    19.9320     5.0220 c3         1 GMA       0.075500
      3 C            2.8140    20.4100     4.9610 c          1 GMA       0.641100
      4 O            3.1440    21.5700     4.7740 o          1 GMA      -0.621100
      5 CB           0.9930    19.0970     6.2940 c3         1 GMA      -0.047400
      6 CG           1.2770    19.8350     7.6290 c3         1 GMA      -0.214400
      7 CD           0.8300    18.9700     8.8210 c          1 GMA       0.930600
      8 OE1          1.6310    18.1750     9.2960 o          1 GMA      -0.845300
      9 OE2         -0.3240    19.0700     9.2150 o          1 GMA      -0.845300
     10 N2           3.7710    19.4600     5.0980 nt         1 GMA      -0.681000
     11 H            1.4440    18.3670     3.6510 hn         1 GMA       0.331800
     12 H2           0.9940    19.7670     2.9700 hn         1 GMA       0.331800
     13 HA           0.7210    20.8540     5.0830 h1         1 GMA       0.084700
     14 HB2         -0.0680    18.8200     6.2690 hc         1 GMA       0.047700
     15 HB3          1.5580    18.1560     6.2730 hc         1 GMA       0.047700
     16 HG2          2.3600    20.0000     7.6690 hc         1 GMA       0.025200
     17 HG3          0.6900    20.7610     7.5930 hc         1 GMA       0.025200
     18 HN2A         4.7420    19.7290     5.0550 hn         1 GMA       0.302500
     19 HN1          3.5070    18.4970     5.2470 hn         1 GMA       0.302500
@<TRIPOS>BOND
     1     1     2 1   
     2     1    11 1   
     3     1    12 1   
     4     2     3 1   
     5     2     5 1   
     6     2    13 1   
     7     3     4 2   
     8     3    10 1   
     9     5     6 1   
    10     5    14 1   
    11     5    15 1   
    12     6     7 1   
    13     6    16 1   
    14     6    17 1   
    15     7     8 1   
    16     7     9 1   
    17    10    18 1   
    18    10    19 1   
@<TRIPOS>SUBSTRUCTURE
     1 GMA         1 TEMP              0 ****  ****    0 ROOT
