@<TRIPOS>MOLECULE
GMA
   19    18     1     0     0
SMALL
bcc


@<TRIPOS>ATOM
      1 N            1.0580    19.0460     3.8210 n8         1 GMA      -0.891800
      2 CA           1.3120    19.8500     5.0050 c3         1 GMA       0.075500
      3 C            2.7110    20.4710     5.0690 c          1 GMA       0.641100
      4 O            2.8770    21.6790     5.1680 o          1 GMA      -0.621100
      5 CB           1.0180    19.0270     6.2600 c3         1 GMA      -0.047400
      6 CG           1.1770    19.8020     7.5580 c3         1 GMA      -0.214400
      7 CD           0.7730    19.0310     8.8330 c          1 GMA       0.930600
      8 OE1          0.6940    17.7890     8.7520 o          1 GMA      -0.845300
      9 OE2          0.5830    19.7240     9.8530 o          1 GMA      -0.845300
     10 N2           3.7360    19.6030     5.0150 nt         1 GMA      -0.681000
     11 H            1.6080    18.1960     3.8280 hn         1 GMA       0.331800
     12 H2           1.3120    19.5490     2.9800 hn         1 GMA       0.331800
     13 HA           0.6240    20.7000     4.9830 h1         1 GMA       0.084700
     14 HB2         -0.0060    18.6560     6.1700 hc         1 GMA       0.047700
     15 HB3          1.6600    18.1410     6.2710 hc         1 GMA       0.047700
     16 HG2          2.2200    20.1150     7.6860 hc         1 GMA       0.025200
     17 HG3          0.6020    20.7330     7.5100 hc         1 GMA       0.025200
     18 HN2A         4.6870    19.9340     5.0360 hn         1 GMA       0.302500
     19 HN1          3.6000    18.6110     4.9270 hn         1 GMA       0.302500
@<TRIPOS>BOND
     1     1     2 1   
     2     1    11 1   
     3     1    12 1   
     4     2     3 1   
     5     2     5 1   
     6     2    13 1   
     7     3     4 2   
     8     3    10 1   
     9     5     6 1   
    10     5    14 1   
    11     5    15 1   
    12     6     7 1   
    13     6    16 1   
    14     6    17 1   
    15     7     8 1   
    16     7     9 1   
    17    10    18 1   
    18    10    19 1   
@<TRIPOS>SUBSTRUCTURE
     1 GMA         1 TEMP              0 ****  ****    0 ROOT
