@<TRIPOS>MOLECULE
GMC
   39    41     1     0     0
SMALL
No Charge or Current Charge


@<TRIPOS>ATOM
      1 C10         82.7450    53.3810    51.7010 c3         1 GMC       0.209600
      2 N6          81.6040    54.1920    52.2000 nh         1 GMC      -0.766300
      3 C9          80.4490    53.4510    52.7600 c3         1 GMC       0.209600
      4 C6          81.5890    55.6140    52.0680 ca         1 GMC       0.446900
      5 C5          80.7160    56.4890    52.7840 ca         1 GMC      -0.082600
      6 C4          80.8170    57.8430    52.5530 ca         1 GMC       0.124500
      7 N3          81.7030    58.3640    51.6850 nb         1 GMC      -0.220000
      8 C2          82.4960    57.4770    51.0500 ca         1 GMC       0.175900
      9 N1          82.4850    56.1350    51.1990 nb         1 GMC      -0.304000
     10 N7          79.7340    56.2100    53.7360 nc         1 GMC      -0.572100
     11 C8          79.2640    57.4310    54.0450 cd         1 GMC       0.416700
     12 N9          79.8940    58.4730    53.3460 na         1 GMC      -0.309300
     13 C1          79.5960    59.9000    53.4270 c5         1 GMC       0.309300
     14 O4          79.0010    60.1650    54.7210 os         1 GMC      -0.443000
     15 C11         77.7370    60.8410    54.5320 c5         1 GMC       0.156300
     16 C7          76.7760    60.5660    55.7250 c3         1 GMC       0.155600
     17 O5          76.3570    59.1850    55.7820 oh         1 GMC      -0.735000
     18 C12         78.5800    60.4150    52.3430 c5         1 GMC       0.136300
     19 O2          78.7480    61.7680    51.9150 oh         1 GMC      -0.716000
     20 C3          77.2370    60.3940    53.1160 c5         1 GMC       0.089500
     21 N2          76.2630    61.3420    52.4880 n8         1 GMC      -1.025200
     22 H101        83.7010    53.8300    52.0020 h1         1 GMC       0.049200
     23 H102        82.7180    53.3090    50.6050 h1         1 GMC       0.049200
     24 H103        82.7170    52.3630    52.1130 h1         1 GMC       0.049200
     25 HC1         80.4400    53.5180    53.8560 h1         1 GMC       0.049200
     26 HC2         80.4880    52.3890    52.4830 h1         1 GMC       0.049200
     27 HC3         79.5050    53.8530    52.3690 h1         1 GMC       0.049200
     28 H2          83.2190    57.8850    50.3470 h5         1 GMC       0.045100
     29 H8          78.4710    57.6350    54.7570 h5         1 GMC       0.088800
     30 H1          80.5560    60.4240    53.3280 h2         1 GMC       0.128700
     31 H4          77.9460    61.9200    54.5260 h1         1 GMC       0.073700
     32 H5'1        75.9000    61.2210    55.6210 h1         1 GMC       0.038700
     33 H5'2        77.2870    60.8510    56.6550 h1         1 GMC       0.038700
     34 H5          75.7910    59.0890    56.5840 ho         1 GMC       0.514000
     35 H6          78.5510    59.7430    51.4730 h1         1 GMC       0.077700
     36 HA          77.7950    62.0690    51.9900 ho         1 GMC       0.538000
     37 H3          76.8000    59.3840    53.1500 h1         1 GMC       0.069700
     38 H3'1        75.4580    61.4710    53.1190 hn         1 GMC       0.417500
     39 H3'2        75.8210    60.8870    51.6740 hn         1 GMC       0.417500
@<TRIPOS>BOND
     1     1     2 1   
     2     1    22 1   
     3     1    23 1   
     4     1    24 1   
     5     2     3 1   
     6     2     4 1   
     7     3    25 1   
     8     3    26 1   
     9     3    27 1   
    10     4     5 ar  
    11     4     9 ar  
    12     5     6 ar  
    13     5    10 1   
    14     6     7 ar  
    15     6    12 1   
    16     7     8 ar  
    17     8     9 ar  
    18     8    28 1   
    19    10    11 2   
    20    11    12 1   
    21    11    29 1   
    22    12    13 1   
    23    13    14 1   
    24    13    18 1   
    25    13    30 1   
    26    14    15 1   
    27    15    16 1   
    28    15    20 1   
    29    15    31 1   
    30    16    17 1   
    31    16    32 1   
    32    16    33 1   
    33    17    34 1   
    34    18    19 1   
    35    18    20 1   
    36    18    35 1   
    37    19    36 1   
    38    20    21 1   
    39    20    37 1   
    40    21    38 1   
    41    21    39 1   
@<TRIPOS>SUBSTRUCTURE
     1 GMC         1 TEMP              0 ****  ****    0 ROOT
