@<TRIPOS>MOLECULE
GMC
   39    41     1     0     0
SMALL
abcg2


@<TRIPOS>ATOM
      1 C10         82.5850    53.4890    51.5920 c3         1 GMC       0.209600
      2 N6          81.5660    54.2610    52.2920 nh         1 GMC      -0.766300
      3 C9          80.4660    53.4850    52.8490 c3         1 GMC       0.209600
      4 C6          81.5500    55.6050    52.1960 ca         1 GMC       0.446900
      5 C5          80.6100    56.4730    52.8180 ca         1 GMC      -0.082600
      6 C4          80.7930    57.8420    52.5930 ca         1 GMC       0.124500
      7 N3          81.7520    58.4190    51.8570 nb         1 GMC      -0.220000
      8 C2          82.5730    57.5140    51.3340 ca         1 GMC       0.175900
      9 N1          82.5230    56.1880    51.4550 nb         1 GMC      -0.304000
     10 N7          79.5140    56.2860    53.6520 nc         1 GMC      -0.572100
     11 C8          79.0600    57.4900    53.9070 cd         1 GMC       0.416700
     12 N9          79.7960    58.4750    53.2950 na         1 GMC      -0.309300
     13 C1          79.5610    59.9170    53.3210 c5         1 GMC       0.309300
     14 O4          79.0700    60.2860    54.5920 os         1 GMC      -0.443000
     15 C11         77.7370    60.8280    54.4930 c5         1 GMC       0.156300
     16 C7          76.9120    60.3860    55.6800 c3         1 GMC       0.155600
     17 O5          76.6830    58.9790    55.6240 oh         1 GMC      -0.735000
     18 C12         78.5200    60.3690    52.2910 c5         1 GMC       0.136300
     19 O2          78.8390    61.6770    51.8530 oh         1 GMC      -0.716000
     20 C3          77.2210    60.3960    53.1180 c5         1 GMC       0.089500
     21 N2          76.2760    61.3590    52.5590 n8         1 GMC      -1.025200
     22 H101        83.5580    53.9620    51.6900 h1         1 GMC       0.049200
     23 H102        82.3520    53.3920    50.5270 h1         1 GMC       0.049200
     24 H103        82.6180    52.4960    52.0360 h1         1 GMC       0.049200
     25 HC1         79.7750    54.1300    53.3750 h1         1 GMC       0.049200
     26 HC2         80.8610    52.7380    53.5400 h1         1 GMC       0.049200
     27 HC3         79.9330    52.9620    52.0480 h1         1 GMC       0.049200
     28 H2          83.3860    57.8980    50.7250 h5         1 GMC       0.045100
     29 H8          78.2210    57.7280    54.5410 h5         1 GMC       0.088800
     30 H1          80.5230    60.3910    53.1290 h2         1 GMC       0.128700
     31 H4          77.8010    61.9210    54.5260 h1         1 GMC       0.073700
     32 H5'1        75.9640    60.9360    55.6600 h1         1 GMC       0.038700
     33 H5'2        77.4430    60.6570    56.5970 h1         1 GMC       0.038700
     34 H5          76.2990    58.6990    56.4630 ho         1 GMC       0.514000
     35 H6          78.4730    59.6750    51.4480 h1         1 GMC       0.077700
     36 HA          77.9770    62.1400    51.8350 ho         1 GMC       0.538000
     37 H3          76.8130    59.3860    53.1810 h1         1 GMC       0.069700
     38 H3'1        75.6600    61.7260    53.2760 hn         1 GMC       0.417500
     39 H3'2        75.6890    60.9180    51.8600 hn         1 GMC       0.417500
@<TRIPOS>BOND
     1     1     2 1   
     2     1    22 1   
     3     1    23 1   
     4     1    24 1   
     5     2     3 1   
     6     2     4 1   
     7     3    25 1   
     8     3    26 1   
     9     3    27 1   
    10     4     5 ar  
    11     4     9 ar  
    12     5     6 ar  
    13     5    10 1   
    14     6     7 ar  
    15     6    12 1   
    16     7     8 ar  
    17     8     9 ar  
    18     8    28 1   
    19    10    11 2   
    20    11    12 1   
    21    11    29 1   
    22    12    13 1   
    23    13    14 1   
    24    13    18 1   
    25    13    30 1   
    26    14    15 1   
    27    15    16 1   
    28    15    20 1   
    29    15    31 1   
    30    16    17 1   
    31    16    32 1   
    32    16    33 1   
    33    17    34 1   
    34    18    19 1   
    35    18    20 1   
    36    18    35 1   
    37    19    36 1   
    38    20    21 1   
    39    20    37 1   
    40    21    38 1   
    41    21    39 1   
@<TRIPOS>SUBSTRUCTURE
     1 GMC         1 TEMP              0 ****  ****    0 ROOT
