@<TRIPOS>MOLECULE
GMD
   49    51     1     0     0
SMALL
abcg2


@<TRIPOS>ATOM
      1 C           -8.6820     1.3170     0.2390 c3         1 GMD       0.164600
      2 OXT         -9.9120     0.8080     0.7080 oh         1 GMD      -0.663000
      3 CA          -7.6300     0.2300     0.3290 c3         1 GMD      -0.081400
      4 CB          -6.2720     0.7150    -0.1650 c3         1 GMD      -0.066400
      5 CG          -5.2130    -0.3710    -0.0600 c3         1 GMD       0.066600
      6 S5          -3.6200     0.2470    -0.6720 ss         1 GMD      -0.444000
      7 C5          -2.5740    -1.1980    -0.3370 c3         1 GMD       0.072600
      8 C4          -1.1290    -0.8920    -0.6900 c5         1 GMD      -0.058700
      9 C1          -0.5190     0.2390     0.1430 c5         1 GMD       0.165800
     10 C3          -0.1930    -2.0960    -0.4420 c5         1 GMD       0.172300
     11 O3           0.3430    -2.5080    -1.6800 oh         1 GMD      -0.641000
     12 C2           0.8540    -1.5460     0.5280 c5         1 GMD       0.125800
     13 N1           0.8780    -0.1270     0.2440 n3         1 GMD      -0.692600
     14 C10          1.6210     0.6720     1.1930 c3         1 GMD       0.255000
     15 C9           3.0770     0.3520     1.1800 cc         1 GMD      -0.260000
     16 C8           3.7900    -0.3160     2.1430 cd         1 GMD      -0.148100
     17 N7           5.0930    -0.4390     1.7740 na         1 GMD      -0.203700
     18 C7           5.2550     0.1510     0.5520 ca         1 GMD      -0.220200
     19 C11          4.0120     0.6550     0.1500 ca         1 GMD       0.142800
     20 N3           3.8410     1.3080    -1.0170 nb         1 GMD      -0.148000
     21 C12          4.9350     1.4140    -1.7330 ca         1 GMD       0.135900
     22 N2           6.1620     0.9640    -1.4460 nb         1 GMD      -0.269000
     23 C6           6.3580     0.3230    -0.2980 ca         1 GMD       0.383900
     24 N6           7.5870    -0.1620    -0.0260 nv         1 GMD      -1.071900
     25 H1          -8.7620     1.6570    -0.8030 h1         1 GMD       0.017200
     26 H2          -8.3570     2.1850     0.8290 h1         1 GMD       0.017200
     27 H3         -10.5720     1.5040     0.6390 ho         1 GMD       0.443000
     28 H4          -7.5440    -0.1070     1.3670 hc         1 GMD       0.052700
     29 H5          -7.9480    -0.6360    -0.2600 hc         1 GMD       0.052700
     30 H6          -6.3560     1.0450    -1.2050 hc         1 GMD       0.052700
     31 H7          -5.9570     1.5870     0.4150 hc         1 GMD       0.052700
     32 H8          -5.0920    -0.6850     0.9790 h1         1 GMD       0.056200
     33 H9          -5.5050    -1.2480    -0.6420 h1         1 GMD       0.056200
     34 H10         -2.6620    -1.4570     0.7220 h1         1 GMD       0.056700
     35 H11         -2.9380    -2.0480    -0.9200 h1         1 GMD       0.056700
     36 H12         -1.0690    -0.6360    -1.7520 hc         1 GMD       0.098700
     37 H13         -0.6350     1.2240    -0.3160 h1         1 GMD       0.044200
     38 H14         -1.0100     0.2820     1.1340 h1         1 GMD       0.044200
     39 H15         -0.7360    -2.9250     0.0320 h1         1 GMD       0.026700
     40 H16          0.8970    -3.2790    -1.5240 ho         1 GMD       0.439000
     41 H17          0.5300    -1.7480     1.5650 h1         1 GMD       0.036200
     42 H18          1.8350    -2.0080     0.3980 h1         1 GMD       0.036200
     43 H20          1.4770     1.7240     0.9280 h1         1 GMD       0.038200
     44 H21          1.2310     0.5510     2.2180 h1         1 GMD       0.038200
     45 H22          3.4500    -0.7190     3.0840 h4         1 GMD       0.212000
     46 H23          5.8000    -0.8910     2.3270 hn         1 GMD       0.349000
     47 H24          4.8470     1.9330    -2.6830 h5         1 GMD       0.045100
     48 H25          8.3470     0.1550    -0.6050 hn         1 GMD       0.480500
     49 H26          7.8370    -0.4080     0.9150 hn         1 GMD       0.480500
@<TRIPOS>BOND
     1     1     2 1   
     2     1     3 1   
     3     1    25 1   
     4     1    26 1   
     5     2    27 1   
     6     3     4 1   
     7     3    28 1   
     8     3    29 1   
     9     4     5 1   
    10     4    30 1   
    11     4    31 1   
    12     5     6 1   
    13     5    32 1   
    14     5    33 1   
    15     6     7 1   
    16     7     8 1   
    17     7    34 1   
    18     7    35 1   
    19     8     9 1   
    20     8    10 1   
    21     8    36 1   
    22     9    13 1   
    23     9    37 1   
    24     9    38 1   
    25    10    11 1   
    26    10    12 1   
    27    10    39 1   
    28    11    40 1   
    29    12    13 1   
    30    12    41 1   
    31    12    42 1   
    32    13    14 1   
    33    14    15 1   
    34    14    43 1   
    35    14    44 1   
    36    15    16 2   
    37    15    19 1   
    38    16    17 1   
    39    16    45 1   
    40    17    18 1   
    41    17    46 1   
    42    18    19 ar  
    43    18    23 ar  
    44    19    20 ar  
    45    20    21 ar  
    46    21    22 ar  
    47    21    47 1   
    48    22    23 ar  
    49    23    24 1   
    50    24    48 1   
    51    24    49 1   
@<TRIPOS>SUBSTRUCTURE
     1 GMD         1 TEMP              0 ****  ****    0 ROOT
