@<TRIPOS>MOLECULE
GMD
   49    51     1     0     0
SMALL
No Charge or Current Charge


@<TRIPOS>ATOM
      1 C           -8.7370     1.5930    -0.4180 c3         1 GMD       0.164600
      2 OXT        -10.0780     1.1130    -0.2880 oh         1 GMD      -0.663000
      3 CA          -7.7450     0.4330    -0.2000 c3         1 GMD      -0.081400
      4 CB          -6.2690     0.8700    -0.3250 c3         1 GMD      -0.066400
      5 CG          -5.2790    -0.2900    -0.1070 c3         1 GMD       0.066600
      6 S5          -3.5380     0.3090    -0.2710 ss         1 GMD      -0.444000
      7 C5          -2.6290    -1.2730     0.0400 c3         1 GMD       0.072600
      8 C4          -1.0970    -1.0940    -0.0290 c5         1 GMD      -0.058700
      9 C1          -0.4950    -0.1600     1.0470 c5         1 GMD       0.165800
     10 C3          -0.2900    -2.4000     0.2370 c5         1 GMD       0.172300
     11 O3          -0.1760    -3.2040    -0.9430 oh         1 GMD      -0.641000
     12 C2           1.0900    -1.8620     0.7650 c5         1 GMD       0.125800
     13 N1           0.9400    -0.3820     0.7850 n3         1 GMD      -0.692600
     14 C10          1.8780     0.3560     1.6520 c3         1 GMD       0.255000
     15 C9           3.3150     0.1280     1.2640 cc         1 GMD      -0.260000
     16 C8           4.2320    -0.7410     1.8570 cd         1 GMD      -0.148100
     17 N7           5.4780    -0.6540     1.1870 na         1 GMD      -0.203700
     18 C7           5.2940     0.2880     0.1820 ca         1 GMD      -0.220200
     19 C11          4.0180     0.7730     0.1940 ca         1 GMD       0.142800
     20 N3           3.5620     1.6950    -0.6730 nb         1 GMD      -0.148000
     21 C12          4.4800     2.1140    -1.5790 ca         1 GMD       0.135900
     22 N2           5.7710     1.7000    -1.6810 nb         1 GMD      -0.269000
     23 C6           6.1790     0.7770    -0.7890 ca         1 GMD       0.383900
     24 N6           7.4740     0.3740    -0.8920 nv         1 GMD      -1.071900
     25 H1          -8.5810     2.0210    -1.4180 h1         1 GMD       0.017200
     26 H2          -8.5420     2.3810     0.3220 h1         1 GMD       0.017200
     27 H3         -10.6720     1.8830    -0.4340 ho         1 GMD       0.443000
     28 H4          -7.9110     0.0010     0.7950 hc         1 GMD       0.052700
     29 H5          -7.9510    -0.3570    -0.9330 hc         1 GMD       0.052700
     30 H6          -6.1010     1.3020    -1.3190 hc         1 GMD       0.052700
     31 H7          -6.0620     1.6600     0.4080 hc         1 GMD       0.052700
     32 H8          -5.4190    -0.7160     0.8950 h1         1 GMD       0.056200
     33 H9          -5.4590    -1.0780    -0.8500 h1         1 GMD       0.056200
     34 H10         -2.9080    -1.6560     1.0300 h1         1 GMD       0.056700
     35 H11         -2.9390    -2.0110    -0.7120 h1         1 GMD       0.056700
     36 H12         -0.8700    -0.7030    -1.0270 hc         1 GMD       0.098700
     37 H13         -0.7880     0.8890     0.8970 h1         1 GMD       0.044200
     38 H14         -0.7830    -0.4620     2.0640 h1         1 GMD       0.044200
     39 H15         -0.7740    -2.9820     1.0340 h1         1 GMD       0.026700
     40 H16          0.3730    -3.9830    -0.7040 ho         1 GMD       0.439000
     41 H17          1.2810    -2.2530     1.7750 h1         1 GMD       0.036200
     42 H18          1.9300    -2.1680     0.1270 h1         1 GMD       0.036200
     43 H20          1.6690     1.4330     1.5960 h1         1 GMD       0.038200
     44 H21          1.7410     0.0540     2.7000 h1         1 GMD       0.038200
     45 H22          4.0860    -1.4140     2.7000 h4         1 GMD       0.212000
     46 H23          6.3210    -1.1840     1.3940 hn         1 GMD       0.349000
     47 H24          4.1480     2.8600    -2.2980 h5         1 GMD       0.045100
     48 H25          8.0940     0.9110    -1.4930 hn         1 GMD       0.480500
     49 H26          7.9070    -0.1000    -0.1040 hn         1 GMD       0.480500
@<TRIPOS>BOND
     1     1     2 1   
     2     1     3 1   
     3     1    25 1   
     4     1    26 1   
     5     2    27 1   
     6     3     4 1   
     7     3    28 1   
     8     3    29 1   
     9     4     5 1   
    10     4    30 1   
    11     4    31 1   
    12     5     6 1   
    13     5    32 1   
    14     5    33 1   
    15     6     7 1   
    16     7     8 1   
    17     7    34 1   
    18     7    35 1   
    19     8     9 1   
    20     8    10 1   
    21     8    36 1   
    22     9    13 1   
    23     9    37 1   
    24     9    38 1   
    25    10    11 1   
    26    10    12 1   
    27    10    39 1   
    28    11    40 1   
    29    12    13 1   
    30    12    41 1   
    31    12    42 1   
    32    13    14 1   
    33    14    15 1   
    34    14    43 1   
    35    14    44 1   
    36    15    16 2   
    37    15    19 1   
    38    16    17 1   
    39    16    45 1   
    40    17    18 1   
    41    17    46 1   
    42    18    19 ar  
    43    18    23 ar  
    44    19    20 ar  
    45    20    21 ar  
    46    21    22 ar  
    47    21    47 1   
    48    22    23 ar  
    49    23    24 1   
    50    24    48 1   
    51    24    49 1   
@<TRIPOS>SUBSTRUCTURE
     1 GMD         1 TEMP              0 ****  ****    0 ROOT
