@<TRIPOS>MOLECULE
GME
   21    20     1     0     0
SMALL
No Charge or Current Charge


@<TRIPOS>ATOM
      1 C           -2.4290    -1.4510    -4.4410 c          1 GME       0.927600
      2 N           -0.1550    -1.1630    -5.7990 n8         1 GME      -0.896800
      3 O           -2.6840    -0.2500    -4.5060 o          1 GME      -0.837300
      4 CA          -1.3270    -2.0500    -5.4410 c3         1 GME       0.019500
      5 CB          -0.8100    -3.4640    -5.0360 c3         1 GME      -0.031400
      6 CD           0.5460    -4.9420    -3.4460 c          1 GME       0.652100
      7 CG           0.0850    -3.5020    -3.7660 c3         1 GME      -0.174400
      8 CX          -1.4590    -5.2020    -2.0180 c3         1 GME       0.130700
      9 OE1          1.5370    -5.4220    -3.9760 o          1 GME      -0.538000
     10 OE2         -0.2760    -5.7240    -2.6570 os         1 GME      -0.447900
     11 H            0.3510    -1.5690    -6.5920 hn         1 GME       0.330800
     12 HA          -1.8700    -2.1890    -6.3860 h1         1 GME       0.001700
     13 H1B         -0.2370    -3.8780    -5.8760 hc         1 GME       0.028700
     14 H2B         -1.6670    -4.1360    -4.9070 hc         1 GME       0.028700
     15 H1G          0.9800    -2.9000    -3.9570 hc         1 GME       0.080200
     16 H2G         -0.4710    -3.0590    -2.9370 hc         1 GME       0.080200
     17 H1X         -1.9640    -5.9970    -1.4540 h1         1 GME       0.051367
     18 H2X         -1.2080    -4.4030    -1.3080 h1         1 GME       0.051367
     19 H3X         -2.1750    -4.8150    -2.7530 h1         1 GME       0.051367
     20 OXT         -2.9800    -2.1830    -3.6250 o          1 GME      -0.837300
     21 H2          -0.5140    -0.2680    -6.1490 hn         1 GME       0.330800
@<TRIPOS>BOND
     1     1     3 1   
     2     1     4 1   
     3     1    20 1   
     4     2     4 1   
     5     2    11 1   
     6     2    21 1   
     7     4     5 1   
     8     4    12 1   
     9     5     7 1   
    10     5    13 1   
    11     5    14 1   
    12     6     7 1   
    13     6     9 2   
    14     6    10 1   
    15     7    15 1   
    16     7    16 1   
    17     8    10 1   
    18     8    17 1   
    19     8    18 1   
    20     8    19 1   
@<TRIPOS>SUBSTRUCTURE
     1 GME         1 TEMP              0 ****  ****    0 ROOT
