@<TRIPOS>MOLECULE
GME
   21    20     1     0     0
SMALL
bcc


@<TRIPOS>ATOM
      1 C           -2.3240    -1.6020    -4.4610 c          1 GME       0.927600
      2 N           -0.2240    -1.2260    -5.7310 n8         1 GME      -0.896800
      3 O           -2.2780    -0.3790    -4.2260 o          1 GME      -0.837300
      4 CA          -1.3170    -2.1580    -5.5020 c3         1 GME       0.019500
      5 CB          -0.7780    -3.5310    -5.1080 c3         1 GME      -0.031400
      6 CD           0.4680    -4.9030    -3.4540 c          1 GME       0.652100
      7 CG           0.0690    -3.5020    -3.8270 c3         1 GME      -0.174400
      8 CX          -1.4510    -5.0320    -2.0040 c3         1 GME       0.130700
      9 OE1          1.4460    -5.4480    -3.9040 o          1 GME      -0.538000
     10 OE2         -0.3190    -5.6150    -2.6460 os         1 GME      -0.447900
     11 H            0.1540    -1.3570    -6.6600 hn         1 GME       0.330800
     12 HA          -1.9140    -2.3200    -6.4170 h1         1 GME       0.001700
     13 H1B         -0.1660    -3.9320    -5.9220 hc         1 GME       0.028700
     14 H2B         -1.6210    -4.2130    -4.9930 hc         1 GME       0.028700
     15 H1G          0.9770    -2.9290    -4.0080 hc         1 GME       0.080200
     16 H2G         -0.4760    -3.0000    -3.0280 hc         1 GME       0.080200
     17 H1X         -1.9730    -5.8500    -1.5150 h1         1 GME       0.051367
     18 H2X         -1.1480    -4.3080    -1.2460 h1         1 GME       0.051367
     19 H3X         -2.1280    -4.5490    -2.7090 h1         1 GME       0.051367
     20 OXT         -3.1310    -2.4240    -3.9810 o          1 GME      -0.837300
     21 H2          -0.5930    -0.2860    -5.6860 hn         1 GME       0.330800
@<TRIPOS>BOND
     1     1     3 1   
     2     1     4 1   
     3     1    20 1   
     4     2     4 1   
     5     2    11 1   
     6     2    21 1   
     7     4     5 1   
     8     4    12 1   
     9     5     7 1   
    10     5    13 1   
    11     5    14 1   
    12     6     7 1   
    13     6     9 2   
    14     6    10 1   
    15     7    15 1   
    16     7    16 1   
    17     8    10 1   
    18     8    17 1   
    19     8    18 1   
    20     8    19 1   
@<TRIPOS>SUBSTRUCTURE
     1 GME         1 TEMP              0 ****  ****    0 ROOT
