@<TRIPOS>MOLECULE
GMF
   45    47     1     0     0
SMALL
No Charge or Current Charge


@<TRIPOS>ATOM
      1 N1           3.4620     3.5790    -0.1630 n2         1 GMF      -0.898100
      2 N2           3.3530     1.4960     0.3820 nu         1 GMF      -0.893400
      3 C3           2.3310     0.4600     0.5680 c3         1 GMF       0.323100
      4 N3           3.5420     2.8130     1.9120 nv         1 GMF      -1.065200
      5 C4           3.1240     2.7460     0.6870 c2         1 GMF       0.794100
      6 N4           4.0350    -3.5040    -0.1220 nb         1 GMF      -0.659000
      7 C5           2.9310    -0.9240     0.3170 ca         1 GMF      -0.054300
      8 C6           3.0220    -1.8710     1.3570 ca         1 GMF      -0.148000
      9 C7           3.5750    -3.1360     1.0970 ca         1 GMF       0.334400
     10 C8           3.9500    -2.5990    -1.1230 ca         1 GMF       0.334400
     11 C9           3.4120    -1.3120    -0.9500 ca         1 GMF      -0.148000
     12 C10          1.0800     0.7000    -0.2870 ca         1 GMF      -0.116300
     13 C11          1.1550     1.2080    -1.6020 ca         1 GMF      -0.093000
     14 C12         -0.0130     1.3970    -2.3570 ca         1 GMF      -0.109000
     15 C13         -1.2660     1.0790    -1.8110 ca         1 GMF      -0.092000
     16 C14         -1.3790     0.5640    -0.4960 cp         1 GMF      -0.034000
     17 C15         -0.1850     0.3820     0.2480 ca         1 GMF      -0.087000
     18 C30         -5.0070    -0.6400    -0.1770 ca         1 GMF       0.141100
     19 C16         -2.7150     0.2210     0.0890 cp         1 GMF       0.001000
     20 C17         -2.9860     0.4190     1.4660 ca         1 GMF      -0.139000
     21 C18         -4.2380     0.0980     2.0140 ca         1 GMF      -0.074000
     22 C1          -7.2750    -1.5280    -0.5770 c3         1 GMF       0.149900
     23 C19         -5.2500    -0.4320     1.1970 ca         1 GMF      -0.195000
     24 C20         -3.7520    -0.3140    -0.7160 ca         1 GMF      -0.136000
     25 H1           3.5670     4.4780     0.3190 hn         1 GMF       0.382400
     26 H11C        -7.2190    -2.3080     0.1930 h1         1 GMF       0.040700
     27 H12C        -7.8020    -0.6590    -0.1620 h1         1 GMF       0.040700
     28 H13C        -7.8690    -1.9170    -1.4130 h1         1 GMF       0.040700
     29 H2           3.7800     1.4810    -0.5330 hn         1 GMF       0.488000
     30 H3           2.0120     0.4890     1.6200 h1         1 GMF       0.062700
     31 H31N         4.3190     3.4500     1.9900 hn         1 GMF       0.457000
     32 H32N         3.7960     1.8730     2.1710 hn         1 GMF       0.457000
     33 H7           3.6530    -3.8800     1.8890 h4         1 GMF       0.020600
     34 H8           4.3260    -2.9150    -2.0960 h4         1 GMF       0.020600
     35 H6           2.6700    -1.6380     2.3580 ha         1 GMF       0.126500
     36 H9           3.3730    -0.6350    -1.7980 ha         1 GMF       0.126500
     37 H11          2.1150     1.4610    -2.0460 ha         1 GMF       0.124000
     38 H15         -0.2440    -0.0300     1.2530 ha         1 GMF       0.114000
     39 H12          0.0530     1.7940    -3.3680 ha         1 GMF       0.117000
     40 H13         -2.1580     1.2460    -2.4090 ha         1 GMF       0.119000
     41 H17         -2.2220     0.8410     2.1150 ha         1 GMF       0.115000
     42 H20         -3.5780    -0.4940    -1.7730 ha         1 GMF       0.129000
     43 H18         -4.4250     0.2620     3.0730 ha         1 GMF       0.111000
     44 H19         -6.2100    -0.6720     1.6450 ha         1 GMF       0.117000
     45 O1          -5.9590    -1.1600    -1.0300 os         1 GMF      -0.343100
@<TRIPOS>BOND
     1     1     5 2   
     2     1    25 1   
     3     2     3 1   
     4     2     5 1   
     5     2    29 1   
     6     3     7 1   
     7     3    12 1   
     8     3    30 1   
     9     4     5 1   
    10     4    31 1   
    11     4    32 1   
    12     6     9 ar  
    13     6    10 ar  
    14     7     8 ar  
    15     7    11 ar  
    16     8     9 ar  
    17     8    35 1   
    18     9    33 1   
    19    10    11 ar  
    20    10    34 1   
    21    11    36 1   
    22    12    13 ar  
    23    12    17 ar  
    24    13    14 ar  
    25    13    37 1   
    26    14    15 ar  
    27    14    39 1   
    28    15    16 ar  
    29    15    40 1   
    30    16    17 ar  
    31    16    19 1   
    32    17    38 1   
    33    18    23 ar  
    34    18    24 ar  
    35    18    45 1   
    36    19    20 ar  
    37    19    24 ar  
    38    20    21 ar  
    39    20    41 1   
    40    21    23 ar  
    41    21    43 1   
    42    22    26 1   
    43    22    27 1   
    44    22    28 1   
    45    22    45 1   
    46    23    44 1   
    47    24    42 1   
@<TRIPOS>SUBSTRUCTURE
     1 GMF         1 TEMP              0 ****  ****    0 ROOT
