@<TRIPOS>MOLECULE
GMF
   45    47     1     0     0
SMALL
abcg2


@<TRIPOS>ATOM
      1 N1           4.3350     3.3260    -0.3220 n2         1 GMF      -0.898100
      2 N2           3.5500     1.2520     0.2360 nu         1 GMF      -0.893400
      3 C3           2.3830     0.4520     0.5440 c3         1 GMF       0.323100
      4 N3           2.8190     3.0720     1.4780 nv         1 GMF      -1.065200
      5 C4           3.6010     2.6150     0.4490 c2         1 GMF       0.794100
      6 N4           3.5600    -3.6550    -0.0250 nb         1 GMF      -0.659000
      7 C5           2.7620    -1.0010     0.3380 ca         1 GMF      -0.054300
      8 C6           3.1750    -1.7820     1.4090 ca         1 GMF      -0.148000
      9 C7           3.5570    -3.0940     1.1780 ca         1 GMF       0.334400
     10 C8           3.1660    -2.9060    -1.0490 ca         1 GMF       0.334400
     11 C9           2.7560    -1.5870    -0.9210 ca         1 GMF      -0.148000
     12 C10          1.1290     0.8130    -0.2320 ca         1 GMF      -0.116300
     13 C11          1.1740     1.5230    -1.4250 ca         1 GMF      -0.093000
     14 C12         -0.0030     1.7980    -2.1110 ca         1 GMF      -0.109000
     15 C13         -1.2230     1.3710    -1.6150 ca         1 GMF      -0.092000
     16 C14         -1.2880     0.6570    -0.4160 cp         1 GMF      -0.034000
     17 C15         -0.1000     0.3890     0.2600 ca         1 GMF      -0.087000
     18 C30         -4.8210    -0.6620    -0.2150 ca         1 GMF       0.141100
     19 C16         -2.5840     0.2040     0.1320 cp         1 GMF       0.001000
     20 C17         -2.8160     0.2150     1.5110 ca         1 GMF      -0.139000
     21 C18         -4.0360    -0.2090     2.0060 ca         1 GMF      -0.074000
     22 C1          -6.9840    -1.5220    -0.6810 c3         1 GMF       0.149900
     23 C19         -5.0460    -0.6510     1.1590 ca         1 GMF      -0.195000
     24 C20         -3.5910    -0.2360    -0.7190 ca         1 GMF      -0.136000
     25 H1           4.3660     4.2890    -0.0050 hn         1 GMF       0.382400
     26 H11C        -6.9000    -2.4030    -0.0390 h1         1 GMF       0.040700
     27 H12C        -7.5290    -0.7430    -0.1420 h1         1 GMF       0.040700
     28 H13C        -7.5480    -1.7920    -1.5700 h1         1 GMF       0.040700
     29 H2           4.0400     0.9860    -0.6060 hn         1 GMF       0.488000
     30 H3           2.1540     0.5600     1.6080 h1         1 GMF       0.062700
     31 H31N         2.9990     4.0190     1.7700 hn         1 GMF       0.457000
     32 H32N         2.6680     2.4580     2.2630 hn         1 GMF       0.457000
     33 H7           3.8750    -3.7180     2.0060 h4         1 GMF       0.020600
     34 H8           3.1730    -3.3760    -2.0260 h4         1 GMF       0.020600
     35 H6           3.1950    -1.3810     2.4150 ha         1 GMF       0.126500
     36 H9           2.4310    -1.0420    -1.7990 ha         1 GMF       0.126500
     37 H11          2.1180     1.8720    -1.8240 ha         1 GMF       0.124000
     38 H15         -0.1270    -0.1780     1.1850 ha         1 GMF       0.114000
     39 H12          0.0340     2.3600    -3.0350 ha         1 GMF       0.117000
     40 H13         -2.1320     1.6150    -2.1500 ha         1 GMF       0.119000
     41 H17         -2.0550     0.5750     2.1910 ha         1 GMF       0.115000
     42 H20         -3.4270    -0.2720    -1.7890 ha         1 GMF       0.129000
     43 H18         -4.2160    -0.1940     3.0730 ha         1 GMF       0.111000
     44 H19         -5.9850    -0.9780     1.5830 ha         1 GMF       0.117000
     45 O1          -5.7210    -1.0710    -1.1290 os         1 GMF      -0.343100
@<TRIPOS>BOND
     1     1     5 2   
     2     1    25 1   
     3     2     3 1   
     4     2     5 1   
     5     2    29 1   
     6     3     7 1   
     7     3    12 1   
     8     3    30 1   
     9     4     5 1   
    10     4    31 1   
    11     4    32 1   
    12     6     9 ar  
    13     6    10 ar  
    14     7     8 ar  
    15     7    11 ar  
    16     8     9 ar  
    17     8    35 1   
    18     9    33 1   
    19    10    11 ar  
    20    10    34 1   
    21    11    36 1   
    22    12    13 ar  
    23    12    17 ar  
    24    13    14 ar  
    25    13    37 1   
    26    14    15 ar  
    27    14    39 1   
    28    15    16 ar  
    29    15    40 1   
    30    16    17 ar  
    31    16    19 1   
    32    17    38 1   
    33    18    23 ar  
    34    18    24 ar  
    35    18    45 1   
    36    19    20 ar  
    37    19    24 ar  
    38    20    21 ar  
    39    20    41 1   
    40    21    23 ar  
    41    21    43 1   
    42    22    26 1   
    43    22    27 1   
    44    22    28 1   
    45    22    45 1   
    46    23    44 1   
    47    24    42 1   
@<TRIPOS>SUBSTRUCTURE
     1 GMF         1 TEMP              0 ****  ****    0 ROOT
