@<TRIPOS>MOLECULE
GMG
   46    50     1     0     0
SMALL
No Charge or Current Charge


@<TRIPOS>ATOM
      1 C4           6.5550     0.4580    -0.6690 ca         1 GMG      -0.098000
      2 C5          -4.7970    -0.1860    -1.1910 ca         1 GMG      -0.115500
      3 C6          -3.3600     1.3610    -0.0050 ca         1 GMG      -0.115500
      4 C7           3.6330     2.2410     0.7900 ca         1 GMG      -0.101000
      5 C8          -3.8860    -1.2260    -0.9360 ca         1 GMG      -0.101000
      6 C10          2.6750     1.2120     0.8050 ca         1 GMG      -0.095000
      7 C13         -2.1070    -3.4410     0.0060 cc         1 GMG      -0.166100
      8 C17          4.9270     1.9940     0.3000 ca         1 GMG      -0.040000
      9 C20          2.9860    -0.0880     0.3330 cp         1 GMG      -0.001000
     10 C21          1.9640    -1.1810     0.3520 cp         1 GMG      -0.145000
     11 C22         -0.3050    -1.9960     0.2030 ca         1 GMG      -0.126800
     12 C24          0.1640    -3.2810     0.3680 ca         1 GMG       0.364500
     13 C1           7.1810     2.7660    -0.2110 ca         1 GMG      -0.116000
     14 C2           7.5140     1.4860    -0.6860 ca         1 GMG      -0.114000
     15 C3           5.8900     3.0210     0.2820 ca         1 GMG      -0.095000
     16 C9          -2.4470     0.3220     0.2470 ca         1 GMG      -0.101000
     17 C11          4.2970    -0.3190    -0.1570 ca         1 GMG      -0.104000
     18 C12          0.5850    -0.9100     0.1580 ca         1 GMG      -0.002000
     19 C14          2.3350    -2.5420     0.5520 ca         1 GMG       0.363900
     20 C16         -4.5380     1.1180    -0.7330 ca         1 GMG       0.026700
     21 C18         -2.6850    -0.9830    -0.2340 ca         1 GMG      -0.074800
     22 C19          5.2600     0.7080    -0.1760 ca         1 GMG      -0.033000
     23 C23         -1.7480    -2.1010     0.0250 cd         1 GMG      -0.027400
     24 C25         -6.5530     2.3160     0.1270 c          1 GMG       0.726000
     25 N26         -0.9100    -4.1380     0.2630 na         1 GMG      -0.328400
     26 N27          1.4610    -3.5800     0.5490 nb         1 GMG      -0.696000
     27 O28         -6.2770     2.9850     1.1120 o          1 GMG      -0.724500
     28 O29         -7.5490     1.6120     0.0450 o          1 GMG      -0.724500
     29 H4           6.8200    -0.5300    -1.0390 ha         1 GMG       0.110000
     30 H5          -5.7080    -0.3960    -1.7460 ha         1 GMG       0.108000
     31 H6          -3.1570     2.3570     0.3820 ha         1 GMG       0.108000
     32 H7           3.3670     3.2280     1.1620 ha         1 GMG       0.113000
     33 H8          -4.1130    -2.2190    -1.3130 ha         1 GMG       0.090000
     34 H10          1.6860     1.4250     1.2020 ha         1 GMG       0.122000
     35 H13         -3.0680    -3.9280    -0.1330 h4         1 GMG       0.220000
     36 H15         -4.9470     3.1780    -1.0540 hc         1 GMG       0.033200
     37 H15A        -6.0250     2.0130    -1.9580 hc         1 GMG       0.033200
     38 H1           7.9240     3.5610    -0.2250 ha         1 GMG       0.107000
     39 H2           8.5130     1.2900    -1.0670 ha         1 GMG       0.106000
     40 H3           5.6390     4.0140     0.6470 ha         1 GMG       0.111000
     41 H9          -1.5870     0.5370     0.8700 ha         1 GMG       0.090000
     42 H11          4.5640    -1.3000    -0.5390 ha         1 GMG       0.113000
     43 H12          0.2510     0.0980    -0.0630 ha         1 GMG       0.131000
     44 H14          3.3770    -2.8110     0.7160 h4         1 GMG       0.011100
     45 HN26        -0.8200    -5.1440     0.3410 hn         1 GMG       0.353000
     46 C15         -5.5250     2.2470    -1.0100 c3         1 GMG      -0.196100
@<TRIPOS>BOND
     1     1    14 ar  
     2     1    22 ar  
     3     1    29 1   
     4     2     5 ar  
     5     2    20 ar  
     6     2    30 1   
     7     3    16 ar  
     8     3    20 ar  
     9     3    31 1   
    10     4     6 ar  
    11     4     8 ar  
    12     4    32 1   
    13     5    21 ar  
    14     5    33 1   
    15     6     9 ar  
    16     6    34 1   
    17     7    23 2   
    18     7    25 1   
    19     7    35 1   
    20     8    15 ar  
    21     8    22 ar  
    22     9    10 1   
    23     9    17 ar  
    24    10    18 ar  
    25    10    19 ar  
    26    11    12 ar  
    27    11    18 ar  
    28    11    23 1   
    29    12    25 1   
    30    12    26 ar  
    31    13    14 ar  
    32    13    15 ar  
    33    13    38 1   
    34    14    39 1   
    35    15    40 1   
    36    16    21 ar  
    37    16    41 1   
    38    17    22 ar  
    39    17    42 1   
    40    18    43 1   
    41    19    26 ar  
    42    19    44 1   
    43    20    46 1   
    44    21    23 1   
    45    24    27 1   
    46    24    28 1   
    47    24    46 1   
    48    25    45 1   
    49    36    46 1   
    50    37    46 1   
@<TRIPOS>SUBSTRUCTURE
     1 GMG         1 TEMP              0 ****  ****    0 ROOT
