@<TRIPOS>MOLECULE
GMG
   46    50     1     0     0
SMALL
abcg2


@<TRIPOS>ATOM
      1 C4           6.5390     0.4200    -0.7570 ca         1 GMG      -0.098000
      2 C5          -4.7180    -0.1190    -1.3040 ca         1 GMG      -0.115500
      3 C6          -3.4690     1.3230     0.1190 ca         1 GMG      -0.115500
      4 C7           3.6760     2.1430     0.8890 ca         1 GMG      -0.101000
      5 C8          -3.7930    -1.1310    -1.0970 ca         1 GMG      -0.101000
      6 C10          2.7340     1.1550     0.8850 ca         1 GMG      -0.095000
      7 C13         -1.9900    -3.3480     0.0400 cc         1 GMG      -0.166100
      8 C17          4.9630     1.9230     0.3460 ca         1 GMG      -0.040000
      9 C20          3.0120    -0.1230     0.3340 cp         1 GMG      -0.001000
     10 C21          1.9740    -1.1700     0.3370 cp         1 GMG      -0.145000
     11 C22         -0.2980    -1.8900     0.1500 ca         1 GMG      -0.126800
     12 C24          0.2040    -3.1980     0.3360 ca         1 GMG       0.364500
     13 C1           7.1940     2.6740    -0.2020 ca         1 GMG      -0.116000
     14 C2           7.4850     1.4080    -0.7540 ca         1 GMG      -0.114000
     15 C3           5.9610     2.9250     0.3360 ca         1 GMG      -0.095000
     16 C9          -2.5450     0.3140     0.3400 ca         1 GMG      -0.101000
     17 C11          4.2580    -0.3520    -0.2010 ca         1 GMG      -0.104000
     18 C12          0.6330    -0.8580     0.1400 ca         1 GMG      -0.002000
     19 C14          2.3240    -2.5180     0.5410 ca         1 GMG       0.363900
     20 C16         -4.5740     1.1300    -0.7050 ca         1 GMG       0.026700
     21 C18         -2.6870    -0.9360    -0.2670 ca         1 GMG      -0.074800
     22 C19          5.2550     0.6490    -0.2060 ca         1 GMG      -0.033000
     23 C23         -1.7170    -2.0070    -0.0380 cd         1 GMG      -0.027400
     24 C25         -6.7130     2.2650     0.1280 c          1 GMG       0.726000
     25 N26         -0.8450    -4.0580     0.2630 na         1 GMG      -0.328400
     26 N27          1.4700    -3.5260     0.5350 nb         1 GMG      -0.696000
     27 O28         -7.5440     3.1800    -0.0300 o          1 GMG      -0.724500
     28 O29         -6.7060     1.4040     1.0240 o          1 GMG      -0.724500
     29 H4           6.7640    -0.5520    -1.1800 ha         1 GMG       0.110000
     30 H5          -5.5610    -0.3020    -1.9600 ha         1 GMG       0.108000
     31 H6          -3.3270     2.2830     0.6040 ha         1 GMG       0.108000
     32 H7           3.4440     3.1100     1.3210 ha         1 GMG       0.113000
     33 H8          -3.9220    -2.0810    -1.6010 ha         1 GMG       0.090000
     34 H10          1.7640     1.3450     1.3280 ha         1 GMG       0.122000
     35 H13         -2.9390    -3.8540    -0.0340 h4         1 GMG       0.220000
     36 H15         -5.0740     3.1930    -0.9230 hc         1 GMG       0.033200
     37 H15A        -6.0290     2.1220    -1.9130 hc         1 GMG       0.033200
     38 H1           7.9520     3.4460    -0.2060 ha         1 GMG       0.107000
     39 H2           8.4640     1.2220    -1.1770 ha         1 GMG       0.106000
     40 H3           5.7340     3.8960     0.7590 ha         1 GMG       0.111000
     41 H9          -1.7160     0.4990     1.0130 ha         1 GMG       0.090000
     42 H11          4.4920    -1.3100    -0.6510 ha         1 GMG       0.113000
     43 H12          0.3300     0.1650    -0.0460 ha         1 GMG       0.131000
     44 H14          3.3610    -2.7750     0.7320 h4         1 GMG       0.011100
     45 HN26        -0.7900    -5.0580     0.3650 hn         1 GMG       0.353000
     46 C15         -5.5730     2.2200    -0.9230 c3         1 GMG      -0.196100
@<TRIPOS>BOND
     1     1    14 ar  
     2     1    22 ar  
     3     1    29 1   
     4     2     5 ar  
     5     2    20 ar  
     6     2    30 1   
     7     3    16 ar  
     8     3    20 ar  
     9     3    31 1   
    10     4     6 ar  
    11     4     8 ar  
    12     4    32 1   
    13     5    21 ar  
    14     5    33 1   
    15     6     9 ar  
    16     6    34 1   
    17     7    23 2   
    18     7    25 1   
    19     7    35 1   
    20     8    15 ar  
    21     8    22 ar  
    22     9    10 1   
    23     9    17 ar  
    24    10    18 ar  
    25    10    19 ar  
    26    11    12 ar  
    27    11    18 ar  
    28    11    23 1   
    29    12    25 1   
    30    12    26 ar  
    31    13    14 ar  
    32    13    15 ar  
    33    13    38 1   
    34    14    39 1   
    35    15    40 1   
    36    16    21 ar  
    37    16    41 1   
    38    17    22 ar  
    39    17    42 1   
    40    18    43 1   
    41    19    26 ar  
    42    19    44 1   
    43    20    46 1   
    44    21    23 1   
    45    24    27 1   
    46    24    28 1   
    47    24    46 1   
    48    25    45 1   
    49    36    46 1   
    50    37    46 1   
@<TRIPOS>SUBSTRUCTURE
     1 GMG         1 TEMP              0 ****  ****    0 ROOT
