@<TRIPOS>MOLECULE
GMH
   28    28     1     0     0
SMALL
No Charge or Current Charge


@<TRIPOS>ATOM
      1 C1          58.6240    63.4210    56.4440 c6         1 GMH       0.382300
      2 C2          58.5720    61.8910    56.0770 c6         1 GMH       0.159300
      3 C3          57.5250    61.1700    56.9780 c6         1 GMH       0.135300
      4 C4          57.7820    61.4620    58.4900 c6         1 GMH       0.110300
      5 C5          57.8210    63.0080    58.7250 c6         1 GMH       0.153300
      6 C6          58.1470    63.3940    60.2130 c3         1 GMH       0.176300
      7 C7          58.0990    64.9230    60.4780 c3         1 GMH       0.123600
      8 O1          57.4140    64.1000    56.1030 oh         1 GMH      -0.741000
      9 O2          59.8430    61.2240    56.2480 oh         1 GMH      -0.713000
     10 O3          57.5630    59.7460    56.7510 oh         1 GMH      -0.732000
     11 O4          56.7690    60.8040    59.2860 oh         1 GMH      -0.732000
     12 O5          58.8280    63.6120    57.8590 os         1 GMH      -0.461000
     13 O6          59.4360    62.9280    60.6550 oh         1 GMH      -0.713000
     14 O7          58.5310    65.1970    61.8270 oh         1 GMH      -0.676000
     15 H1          59.4660    63.8750    55.8960 h2         1 GMH       0.084700
     16 H2          58.2450    61.8040    55.0300 h1         1 GMH       0.063700
     17 H3          56.5290    61.5640    56.7210 h1         1 GMH       0.065700
     18 H4          58.7770    61.0650    58.7480 h1         1 GMH       0.079700
     19 H5          56.8340    63.4310    58.4840 h1         1 GMH       0.055700
     20 H6          57.3660    62.9440    60.8410 h1         1 GMH       0.043700
     21 H71         58.7450    65.4430    59.7580 h1         1 GMH       0.039700
     22 H72         57.0720    65.2790    60.3220 h1         1 GMH       0.039700
     23 HO1         57.5610    65.0300    56.3850 ho         1 GMH       0.519000
     24 HO2         59.5830    60.2780    56.3740 ho         1 GMH       0.526000
     25 HO3         57.0250    59.3640    57.4890 ho         1 GMH       0.526000
     26 HO4         57.1320    60.7060    60.1990 ho         1 GMH       0.515000
     27 HO6         59.6660    63.5720    61.3710 ho         1 GMH       0.518000
     28 HO7         58.4010    66.1610    61.9840 ho         1 GMH       0.452000
@<TRIPOS>BOND
     1     1     2 1   
     2     1     8 1   
     3     1    12 1   
     4     1    15 1   
     5     2     3 1   
     6     2     9 1   
     7     2    16 1   
     8     3     4 1   
     9     3    10 1   
    10     3    17 1   
    11     4     5 1   
    12     4    11 1   
    13     4    18 1   
    14     5     6 1   
    15     5    12 1   
    16     5    19 1   
    17     6     7 1   
    18     6    13 1   
    19     6    20 1   
    20     7    14 1   
    21     7    21 1   
    22     7    22 1   
    23     8    23 1   
    24     9    24 1   
    25    10    25 1   
    26    11    26 1   
    27    13    27 1   
    28    14    28 1   
@<TRIPOS>SUBSTRUCTURE
     1 GMH         1 TEMP              0 ****  ****    0 ROOT
