@<TRIPOS>MOLECULE
GMH
   28    28     1     0     0
SMALL
abcg2


@<TRIPOS>ATOM
      1 C1          58.5630    63.4150    56.5310 c6         1 GMH       0.382300
      2 C2          58.5280    61.9290    56.1870 c6         1 GMH       0.159300
      3 C3          57.5110    61.2140    57.0710 c6         1 GMH       0.135300
      4 C4          57.7980    61.4990    58.5400 c6         1 GMH       0.110300
      5 C5          57.8230    63.0170    58.7600 c6         1 GMH       0.153300
      6 C6          58.1500    63.4120    60.1900 c3         1 GMH       0.176300
      7 C7          58.1260    64.9210    60.3800 c3         1 GMH       0.123600
      8 O1          57.3680    63.9730    56.0860 oh         1 GMH      -0.741000
      9 O2          59.8290    61.4330    56.3820 oh         1 GMH      -0.713000
     10 O3          57.5880    59.8390    56.7750 oh         1 GMH      -0.732000
     11 O4          56.7730    60.8840    59.2920 oh         1 GMH      -0.732000
     12 O5          58.7780    63.6150    57.9010 os         1 GMH      -0.461000
     13 O6          59.3990    62.8690    60.5490 oh         1 GMH      -0.713000
     14 O7          58.3300    65.1730    61.7550 oh         1 GMH      -0.676000
     15 H1          59.4280    63.8810    56.0450 h2         1 GMH       0.084700
     16 H2          58.2230    61.8260    55.1350 h1         1 GMH       0.063700
     17 H3          56.5110    61.6080    56.8370 h1         1 GMH       0.065700
     18 H4          58.7780    61.0790    58.7960 h1         1 GMH       0.079700
     19 H5          56.8160    63.4060    58.5510 h1         1 GMH       0.055700
     20 H6          57.3470    62.9960    60.8190 h1         1 GMH       0.043700
     21 H71         58.9060    65.3860    59.7690 h1         1 GMH       0.039700
     22 H72         57.1590    65.3120    60.0360 h1         1 GMH       0.039700
     23 HO1         57.4250    64.9330    56.1520 ho         1 GMH       0.519000
     24 HO2         59.7930    60.4730    56.3080 ho         1 GMH       0.526000
     25 HO3         57.0700    59.3620    57.4330 ho         1 GMH       0.526000
     26 HO4         57.1130    60.6600    60.1630 ho         1 GMH       0.515000
     27 HO6         59.6130    63.1930    61.4300 ho         1 GMH       0.518000
     28 HO7         58.6090    66.0860    61.8610 ho         1 GMH       0.452000
@<TRIPOS>BOND
     1     1     2 1   
     2     1     8 1   
     3     1    12 1   
     4     1    15 1   
     5     2     3 1   
     6     2     9 1   
     7     2    16 1   
     8     3     4 1   
     9     3    10 1   
    10     3    17 1   
    11     4     5 1   
    12     4    11 1   
    13     4    18 1   
    14     5     6 1   
    15     5    12 1   
    16     5    19 1   
    17     6     7 1   
    18     6    13 1   
    19     6    20 1   
    20     7    14 1   
    21     7    21 1   
    22     7    22 1   
    23     8    23 1   
    24     9    24 1   
    25    10    25 1   
    26    11    26 1   
    27    13    27 1   
    28    14    28 1   
@<TRIPOS>SUBSTRUCTURE
     1 GMH         1 TEMP              0 ****  ****    0 ROOT
