@<TRIPOS>MOLECULE
GMI
   44    45     1     0     0
SMALL
No Charge or Current Charge


@<TRIPOS>ATOM
      1 N1           8.7700    17.8250    -2.9730 nb         1 GMI      -0.219000
      2 C2           7.6780    17.0340    -2.9300 ca         1 GMI       0.172300
      3 CM2          7.8170    15.6370    -3.5090 c3         1 GMI      -0.132400
      4 N3           6.4780    17.3640    -2.4140 nb         1 GMI      -0.283000
      5 C4           6.3660    18.5950    -1.8990 ca         1 GMI       0.390900
      6 N4           5.1380    18.8870    -1.3990 nv         1 GMI      -1.081900
      7 C5           7.4320    19.5080    -1.8830 ca         1 GMI      -0.282300
      8 C6           8.6440    19.0610    -2.4510 ca         1 GMI       0.160900
      9 C7           7.2870    20.9100    -1.2780 c3         1 GMI       0.135900
     10 N2           8.5490    21.6670    -1.1230 na         1 GMI       0.001300
     11 C1           8.9560    22.6050    -2.0420 cc         1 GMI      -0.439300
     12 S1          10.4780    23.3360    -1.6130 ss         1 GMI       0.505000
     13 C9          10.5290    22.3130    -0.1670 cc         1 GMI      -0.227300
     14 C8           9.4270    21.4760    -0.0560 cd         1 GMI      -0.120300
     15 CM4          9.1630    20.4710     1.0450 c3         1 GMI      -0.024800
     16 C10         11.6950    22.3870     0.8060 c3         1 GMI      -0.017100
     17 C11         12.7480    23.4920     0.5470 c3         1 GMI       0.235600
     18 O7          12.1120    24.7660     0.6860 os         1 GMI      -0.594400
     19 PA          12.9650    26.1160     0.9270 p5         1 GMI       1.398400
     20 O1A         11.9960    27.2230     1.1900 o          1 GMI      -0.807000
     21 O2A         13.9550    25.9710     2.0350 o          1 GMI      -0.807000
     22 PB          15.3290    25.8960    -0.7520 p5         1 GMI       1.215500
     23 O1B         15.5140    24.5160    -0.2300 o          1 GMI      -0.803500
     24 O2B         16.1140    26.9010     0.0180 o          1 GMI      -0.803500
     25 O3B         15.7220    25.9570    -2.1880 o          1 GMI      -0.803500
     26 C3A         13.6160    26.3780    -0.7240 c3         1 GMI      -0.575400
     27 H1           6.8720    15.2870    -3.9420 hc         1 GMI       0.053367
     28 H2           8.5730    15.6030    -4.3020 hc         1 GMI       0.053367
     29 H3           8.1140    14.9230    -2.7320 hc         1 GMI       0.053367
     30 H4           4.3750    18.2460    -1.6080 hn         1 GMI       0.491500
     31 H5           4.8810    19.8570    -1.2420 hn         1 GMI       0.491500
     32 H6           9.5320    19.6880    -2.4950 h4         1 GMI       0.043100
     33 H7           6.6160    21.4990    -1.9160 h1         1 GMI       0.063200
     34 H8           6.8090    20.8360    -0.2940 h1         1 GMI       0.063200
     35 H9           8.4080    22.8730    -2.9360 h5         1 GMI       0.168000
     36 H10          8.9470    19.4770     0.6340 hc         1 GMI       0.047700
     37 H11         10.0230    20.3610     1.7150 hc         1 GMI       0.047700
     38 H12          8.3070    20.7760     1.6580 hc         1 GMI       0.047700
     39 H13         11.3100    22.5150     1.8240 hc         1 GMI       0.036200
     40 H14         12.2170    21.4230     0.8000 hc         1 GMI       0.036200
     41 H15         13.5600    23.3790     1.2770 h1         1 GMI       0.015700
     42 H16         13.1630    23.3690    -0.4610 h1         1 GMI       0.015700
     43 H20         13.5380    27.4380    -0.9830 hc         1 GMI       0.040700
     44 H21         13.0490    25.7920    -1.4520 hc         1 GMI       0.040700
@<TRIPOS>BOND
     1     1     2 ar  
     2     1     8 ar  
     3     2     3 1   
     4     2     4 ar  
     5     3    27 1   
     6     3    28 1   
     7     3    29 1   
     8     4     5 ar  
     9     5     6 1   
    10     5     7 ar  
    11     6    30 1   
    12     6    31 1   
    13     7     8 ar  
    14     7     9 1   
    15     8    32 1   
    16     9    10 1   
    17     9    33 1   
    18     9    34 1   
    19    10    11 2   
    20    10    14 1   
    21    11    12 1   
    22    11    35 1   
    23    12    13 1   
    24    13    14 2   
    25    13    16 1   
    26    14    15 1   
    27    15    36 1   
    28    15    37 1   
    29    15    38 1   
    30    16    17 1   
    31    16    39 1   
    32    16    40 1   
    33    17    18 1   
    34    17    41 1   
    35    17    42 1   
    36    18    19 1   
    37    19    20 1   
    38    19    21 1   
    39    19    26 1   
    40    22    23 1   
    41    22    24 1   
    42    22    25 1   
    43    22    26 1   
    44    26    43 1   
    45    26    44 1   
@<TRIPOS>SUBSTRUCTURE
     1 GMI         1 TEMP              0 ****  ****    0 ROOT
