@<TRIPOS>MOLECULE
GMI
   44    45     1     0     0
SMALL
abcg2


@<TRIPOS>ATOM
      1 N1           8.5790    17.7420    -2.7040 nb         1 GMI      -0.219000
      2 C2           7.3450    17.2520    -2.6880 ca         1 GMI       0.172300
      3 CM2          7.1830    15.8060    -3.0370 c3         1 GMI      -0.132400
      4 N3           6.2510    17.9340    -2.3870 nb         1 GMI      -0.283000
      5 C4           6.3770    19.2200    -2.0530 ca         1 GMI       0.390900
      6 N4           5.2490    19.8840    -1.7550 nv         1 GMI      -1.081900
      7 C5           7.6510    19.8280    -1.9980 ca         1 GMI      -0.282300
      8 C6           8.7060    19.0210    -2.3560 ca         1 GMI       0.160900
      9 C7           7.7820    21.2660    -1.5870 c3         1 GMI       0.135900
     10 N2           9.1660    21.6480    -1.3180 na         1 GMI       0.001300
     11 C1           9.8790    22.3400    -2.1790 cc         1 GMI      -0.439300
     12 S1          11.4340    22.6110    -1.6390 ss         1 GMI       0.505000
     13 C9          11.1270    21.7420    -0.1810 cc         1 GMI      -0.227300
     14 C8           9.8450    21.2910    -0.1630 cd         1 GMI      -0.120300
     15 CM4          9.1630    20.5230     0.9110 c3         1 GMI      -0.024800
     16 C10         12.2100    21.5310     0.8260 c3         1 GMI      -0.017100
     17 C11         13.1870    22.6920     0.9400 c3         1 GMI       0.235600
     18 O7          12.4840    23.8440     1.3020 os         1 GMI      -0.594400
     19 PA          13.2610    25.3460     1.2350 p5         1 GMI       1.398400
     20 O1A         12.3570    26.2330     2.0490 o          1 GMI      -0.807000
     21 O2A         14.6880    25.1220     1.6730 o          1 GMI      -0.807000
     22 PB          13.8810    27.3110    -1.2360 p5         1 GMI       1.215500
     23 O1B         15.3870    27.2420    -0.9540 o          1 GMI      -0.803500
     24 O2B         13.1580    28.4500    -0.5060 o          1 GMI      -0.803500
     25 O3B         13.5340    27.2160    -2.7290 o          1 GMI      -0.803500
     26 C3A         13.1530    25.7090    -0.5400 c3         1 GMI      -0.575400
     27 H1           6.1340    15.5220    -3.0710 hc         1 GMI       0.053367
     28 H2           7.6390    15.5910    -4.0030 hc         1 GMI       0.053367
     29 H3           7.6880    15.1800    -2.2990 hc         1 GMI       0.053367
     30 H4           4.3690    19.4190    -1.9020 hn         1 GMI       0.491500
     31 H5           5.2150    20.8850    -1.6770 hn         1 GMI       0.491500
     32 H6           9.7200    19.4080    -2.3640 h4         1 GMI       0.043100
     33 H7           7.4050    21.9390    -2.3590 h1         1 GMI       0.063200
     34 H8           7.2050    21.4730    -0.6830 h1         1 GMI       0.063200
     35 H9           9.4850    22.6900    -3.1220 h5         1 GMI       0.168000
     36 H10          8.8510    19.5370     0.5660 hc         1 GMI       0.047700
     37 H11          9.8330    20.3820     1.7540 hc         1 GMI       0.047700
     38 H12          8.2800    21.0500     1.2740 hc         1 GMI       0.047700
     39 H13         11.7540    21.3420     1.7990 hc         1 GMI       0.036200
     40 H14         12.7670    20.6280     0.5610 hc         1 GMI       0.036200
     41 H15         13.9460    22.4190     1.6810 h1         1 GMI       0.015700
     42 H16         13.7250    22.8090    -0.0130 h1         1 GMI       0.015700
     43 H20         12.0920    25.6750    -0.8150 hc         1 GMI       0.040700
     44 H21         13.6260    24.8820    -1.0840 hc         1 GMI       0.040700
@<TRIPOS>BOND
     1     1     2 ar  
     2     1     8 ar  
     3     2     3 1   
     4     2     4 ar  
     5     3    27 1   
     6     3    28 1   
     7     3    29 1   
     8     4     5 ar  
     9     5     6 1   
    10     5     7 ar  
    11     6    30 1   
    12     6    31 1   
    13     7     8 ar  
    14     7     9 1   
    15     8    32 1   
    16     9    10 1   
    17     9    33 1   
    18     9    34 1   
    19    10    11 2   
    20    10    14 1   
    21    11    12 1   
    22    11    35 1   
    23    12    13 1   
    24    13    14 2   
    25    13    16 1   
    26    14    15 1   
    27    15    36 1   
    28    15    37 1   
    29    15    38 1   
    30    16    17 1   
    31    16    39 1   
    32    16    40 1   
    33    17    18 1   
    34    17    41 1   
    35    17    42 1   
    36    18    19 1   
    37    19    20 1   
    38    19    21 1   
    39    19    26 1   
    40    22    23 1   
    41    22    24 1   
    42    22    25 1   
    43    22    26 1   
    44    26    43 1   
    45    26    44 1   
@<TRIPOS>SUBSTRUCTURE
     1 GMI         1 TEMP              0 ****  ****    0 ROOT
