@<TRIPOS>MOLECULE
GMJ
   49    51     1     0     0
SMALL
bcc


@<TRIPOS>ATOM
      1 C10         -1.9880     0.1410     0.0710 c3         1 GMJ      -0.068400
      2 C11         -1.0660    -1.0660    -0.0530 c3         1 GMJ       0.167800
      3 C01         -6.3380    -0.8010    -0.2550 ca         1 GMJ      -0.056500
      4 C02         -7.6870    -1.0760    -0.4060 ca         1 GMJ      -0.186000
      5 C03         -8.5760    -0.0180    -0.4220 ca         1 GMJ       0.163900
      6 C04         -8.1630     1.2960    -0.2880 ca         1 GMJ      -0.186000
      7 C05         -6.8120     1.5510    -0.1330 ca         1 GMJ      -0.056500
      8 C06         -5.8820     0.5100    -0.1160 ca         1 GMJ      -0.194600
      9 C07         -4.4360     0.8340     0.0440 c          1 GMJ       0.586700
     10 C09         -3.4410    -0.2970    -0.0220 c3         1 GMJ      -0.176400
     11 C13          1.1170    -1.8760    -0.5790 c6         1 GMJ       0.168800
     12 C14          2.5740    -1.5080    -0.8130 c6         1 GMJ      -0.082900
     13 C15          3.2130    -0.8810     0.4280 c6         1 GMJ       0.208100
     14 C16          2.3170     0.2730     0.8960 c6         1 GMJ      -0.082900
     15 C17          0.8730    -0.1700     1.0770 c6         1 GMJ       0.168800
     16 C18          4.6150    -0.3850     0.1020 ca         1 GMJ      -0.106300
     17 C19          5.7390    -0.9220     0.7220 ca         1 GMJ      -0.111000
     18 C20          7.0180    -0.4740     0.4160 ca         1 GMJ      -0.123500
     19 C21          7.1780     0.5210    -0.5310 ca         1 GMJ       0.030400
     20 C22          6.0800     1.0730    -1.1720 ca         1 GMJ      -0.123500
     21 C23          4.8120     0.6160    -0.8490 ca         1 GMJ      -0.111000
     22 N12          0.3400    -0.7240    -0.1550 n3         1 GMJ      -0.718600
     23 O08         -4.0820     1.9820     0.2140 o          1 GMJ      -0.521100
     24 CL1          8.7710     1.0840    -0.9260 cl         1 GMJ      -0.113400
     25 H1          -1.8230     0.6630     1.0150 hc         1 GMJ       0.060700
     26 H2          -1.7570     0.8480    -0.7300 hc         1 GMJ       0.060700
     27 H3          -1.2520    -1.7630     0.7840 h1         1 GMJ       0.027200
     28 H4          -1.3370    -1.6070    -0.9640 h1         1 GMJ       0.027200
     29 H5          -5.6460    -1.6320    -0.2450 ha         1 GMJ       0.146000
     30 H6          -8.0400    -2.0930    -0.5130 ha         1 GMJ       0.155000
     31 H7          -8.8840     2.1020    -0.3060 ha         1 GMJ       0.155000
     32 H8          -6.4780     2.5740    -0.0280 ha         1 GMJ       0.146000
     33 H9          -3.6090    -0.8490    -0.9530 hc         1 GMJ       0.061200
     34 H10         -3.6740    -1.0100     0.7770 hc         1 GMJ       0.061200
     35 H11          0.6970    -2.2510    -1.5150 h1         1 GMJ       0.036950
     36 H12          1.0510    -2.7030     0.1480 h1         1 GMJ       0.036950
     37 H13          3.1380    -2.3950    -1.1140 hc         1 GMJ       0.057200
     38 H14          2.6320    -0.7960    -1.6390 hc         1 GMJ       0.057200
     39 H15          2.6980     0.6850     1.8360 hc         1 GMJ       0.057200
     40 H16          2.3460     1.0850     0.1660 hc         1 GMJ       0.057200
     41 H17          0.7970    -0.8900     1.9100 h1         1 GMJ       0.036950
     42 H18          0.2840     0.7020     1.3680 h1         1 GMJ       0.036950
     43 H19          5.6360    -1.7100     1.4550 ha         1 GMJ       0.140500
     44 H20          7.8760    -0.9050     0.9140 ha         1 GMJ       0.147500
     45 H21          6.2050     1.8480    -1.9150 ha         1 GMJ       0.147500
     46 H22          3.9670     1.0580    -1.3640 ha         1 GMJ       0.140500
     47 H24          3.3750    -1.4850     2.2770 ho         1 GMJ       0.405000
     48 O25          3.2490    -1.8920     1.4130 oh         1 GMJ      -0.594800
     49 F26         -9.8800    -0.2710    -0.5730 f          1 GMJ      -0.136900
@<TRIPOS>BOND
     1     1     2 1   
     2     1    10 1   
     3     1    25 1   
     4     1    26 1   
     5     2    22 1   
     6     2    27 1   
     7     2    28 1   
     8     3     4 ar  
     9     3     8 ar  
    10     3    29 1   
    11     4     5 ar  
    12     4    30 1   
    13     5     6 ar  
    14     5    49 1   
    15     6     7 ar  
    16     6    31 1   
    17     7     8 ar  
    18     7    32 1   
    19     8     9 1   
    20     9    10 1   
    21     9    23 2   
    22    10    33 1   
    23    10    34 1   
    24    11    12 1   
    25    11    22 1   
    26    11    35 1   
    27    11    36 1   
    28    12    13 1   
    29    12    37 1   
    30    12    38 1   
    31    13    14 1   
    32    13    16 1   
    33    13    48 1   
    34    14    15 1   
    35    14    39 1   
    36    14    40 1   
    37    15    22 1   
    38    15    41 1   
    39    15    42 1   
    40    16    17 ar  
    41    16    21 ar  
    42    17    18 ar  
    43    17    43 1   
    44    18    19 ar  
    45    18    44 1   
    46    19    20 ar  
    47    19    24 1   
    48    20    21 ar  
    49    20    45 1   
    50    21    46 1   
    51    47    48 1   
@<TRIPOS>SUBSTRUCTURE
     1 GMJ         1 TEMP              0 ****  ****    0 ROOT
