@<TRIPOS>MOLECULE
GMJ
   49    51     1     0     0
SMALL
No Charge or Current Charge


@<TRIPOS>ATOM
      1 C10         -2.0360     0.0870    -0.0170 c3         1 GMJ      -0.068400
      2 C11         -1.0780    -1.1200    -0.1420 c3         1 GMJ       0.167800
      3 C01         -6.5130    -0.7900    -0.3230 ca         1 GMJ      -0.038500
      4 C02         -7.8940    -1.0390    -0.4220 ca         1 GMJ      -0.168000
      5 C03         -8.8070     0.0190    -0.3270 ca         1 GMJ       0.199000
      6 C04         -8.3500     1.3290    -0.1340 ca         1 GMJ      -0.168000
      7 C05         -6.9720     1.5850    -0.0350 ca         1 GMJ      -0.038500
      8 C06         -6.0330     0.5290    -0.1280 ca         1 GMJ      -0.194600
      9 C07         -4.5500     0.8350    -0.0170 c          1 GMJ       0.586700
     10 C09         -3.5290    -0.3150    -0.1300 c3         1 GMJ      -0.176400
     11 C13          1.1930    -1.9560    -0.5690 c6         1 GMJ       0.168800
     12 C14          2.6780    -1.5740    -0.7810 c6         1 GMJ      -0.082900
     13 C15          3.2860    -0.8670     0.4590 c6         1 GMJ       0.231300
     14 C16          2.3590     0.3190     0.8570 c6         1 GMJ      -0.082900
     15 C17          0.8830    -0.1190     1.0230 c6         1 GMJ       0.168800
     16 C18          4.7300    -0.3810     0.1420 ca         1 GMJ      -0.106300
     17 C19          5.8700    -0.9510     0.7650 ca         1 GMJ      -0.093000
     18 C20          7.1640    -0.4960     0.4520 ca         1 GMJ      -0.105500
     19 C21          7.3440     0.5250    -0.4910 ca         1 GMJ       0.122000
     20 C22          6.2320     1.0900    -1.1290 ca         1 GMJ      -0.105500
     21 C23          4.9370     0.6390    -0.8190 ca         1 GMJ      -0.093000
     22 N12          0.3620    -0.7720    -0.2140 n3         1 GMJ      -0.718600
     23 O08         -4.1680     1.9860     0.1610 o          1 GMJ      -0.521100
     24 Cl1          8.9640     1.0890    -0.8810 cl         1 GMJ      -0.205000
     25 H1          -1.8780     0.5870     0.9460 hc         1 GMJ       0.060700
     26 H2          -1.7960     0.8130    -0.8040 hc         1 GMJ       0.060700
     27 H3          -1.2580    -1.8010     0.7010 h1         1 GMJ       0.027200
     28 H4          -1.3570    -1.6640    -1.0550 h1         1 GMJ       0.027200
     29 H5          -5.8330    -1.6360    -0.4010 ha         1 GMJ       0.128000
     30 H6          -8.2560    -2.0520    -0.5720 ha         1 GMJ       0.137000
     31 H7          -9.0640     2.1450    -0.0620 ha         1 GMJ       0.137000
     32 H8          -6.6380     2.6100     0.1150 ha         1 GMJ       0.128000
     33 H9          -3.7310    -0.8490    -1.0660 hc         1 GMJ       0.061200
     34 H10         -3.7970    -1.0740     0.6140 hc         1 GMJ       0.061200
     35 H11          0.8190    -2.4180    -1.4950 h1         1 GMJ       0.036950
     36 H12          1.1240    -2.7210     0.2190 h1         1 GMJ       0.036950
     37 H13          3.2590    -2.4740    -1.0210 hc         1 GMJ       0.057200
     38 H14          2.7480    -0.9200    -1.6600 hc         1 GMJ       0.057200
     39 H15          2.7140     0.7820     1.7870 hc         1 GMJ       0.057200
     40 H16          2.3900     1.1070     0.0950 hc         1 GMJ       0.057200
     41 H17          0.7970    -0.8030     1.8810 h1         1 GMJ       0.036950
     42 H18          0.2960     0.7770     1.2680 h1         1 GMJ       0.036950
     43 H19          5.7760    -1.7540     1.4900 ha         1 GMJ       0.122500
     44 H20          8.0280    -0.9400     0.9390 ha         1 GMJ       0.129500
     45 H21          6.3730     1.8760    -1.8670 ha         1 GMJ       0.129500
     46 H22          4.0950     1.0870    -1.3420 ha         1 GMJ       0.122500
     47 H24          3.6850    -1.3120     2.3150 ho         1 GMJ       0.444000
     48 O25          3.3100    -1.7970     1.5500 oh         1 GMJ      -0.657000
     49 F26        -10.1320    -0.2250    -0.4220 f          1 GMJ      -0.172000
@<TRIPOS>BOND
     1     1     2 1   
     2     1    10 1   
     3     1    25 1   
     4     1    26 1   
     5     2    22 1   
     6     2    27 1   
     7     2    28 1   
     8     3     4 ar  
     9     3     8 ar  
    10     3    29 1   
    11     4     5 ar  
    12     4    30 1   
    13     5     6 ar  
    14     5    49 1   
    15     6     7 ar  
    16     6    31 1   
    17     7     8 ar  
    18     7    32 1   
    19     8     9 1   
    20     9    10 1   
    21     9    23 2   
    22    10    33 1   
    23    10    34 1   
    24    11    12 1   
    25    11    22 1   
    26    11    35 1   
    27    11    36 1   
    28    12    13 1   
    29    12    37 1   
    30    12    38 1   
    31    13    14 1   
    32    13    16 1   
    33    13    48 1   
    34    14    15 1   
    35    14    39 1   
    36    14    40 1   
    37    15    22 1   
    38    15    41 1   
    39    15    42 1   
    40    16    17 ar  
    41    16    21 ar  
    42    17    18 ar  
    43    17    43 1   
    44    18    19 ar  
    45    18    44 1   
    46    19    20 ar  
    47    19    24 1   
    48    20    21 ar  
    49    20    45 1   
    50    21    46 1   
    51    47    48 1   
@<TRIPOS>SUBSTRUCTURE
     1 GMJ         1 TEMP              0 ****  ****    0 ROOT
