@<TRIPOS>MOLECULE
GMK
   82    85     1     0     0
SMALL
No Charge or Current Charge


@<TRIPOS>ATOM
      1 O1           6.4070    -0.5890    -1.7850 o          1 GMK      -0.597100
      2 C1           6.6200    -0.2770    -0.6200 c          1 GMK       0.617700
      3 C2           7.9340     0.3400    -0.1750 ca         1 GMK      -0.106600
      4 C3           8.1910     0.6880     1.1740 ca         1 GMK      -0.129000
      5 C4           9.4210     1.2580     1.5440 ca         1 GMK      -0.085000
      6 C5          12.4040     1.9330    -1.4910 c3         1 GMK       0.150900
      7 C6          10.4140     1.4910     0.5800 ca         1 GMK      -0.187000
      8 C7          10.1770     1.1510    -0.7680 ca         1 GMK       0.128100
      9 C8           8.9460     0.5820    -1.1340 ca         1 GMK      -0.092000
     10 N1           5.6800    -0.4920     0.3630 ns         1 GMK      -0.486900
     11 C9           4.3060    -1.0000     0.1640 c6         1 GMK       0.110700
     12 C10          3.9360    -1.9970     1.3070 c6         1 GMK       0.127300
     13 O3           4.1450    -1.3680     2.5950 oh         1 GMK      -0.709000
     14 C11          2.4590    -2.4710     1.0990 c6         1 GMK       0.135300
     15 C12          1.9720    -3.4870     2.1840 c3         1 GMK       0.171600
     16 O4           0.6260    -3.9480     1.9610 oh         1 GMK      -0.698000
     17 O5           1.5670    -1.3320     1.0930 os         1 GMK      -0.397000
     18 C13          3.2600     0.1680     0.1090 c6         1 GMK       0.150300
     19 O6           3.5400     1.0670    -0.9900 oh         1 GMK      -0.715000
     20 C14          1.8130    -0.4170     0.0060 c6         1 GMK       0.215300
     21 S1           0.5050     0.8850     0.0460 ss         1 GMK      -0.242000
     22 C15         -0.9580    -0.1980    -0.2660 c6         1 GMK       0.266300
     23 C16         -2.3320     0.5430    -0.1550 c6         1 GMK       0.204300
     24 O7          -2.5140     1.0750     1.1800 os         1 GMK      -0.578700
     25 S2          -2.9920     2.6380     1.3320 s6         1 GMK       1.497300
     26 O8          -4.2190     2.7040     0.5270 o          1 GMK      -0.703200
     27 O9          -3.1990     2.8060     2.7760 o          1 GMK      -0.703200
     28 O10         -1.8730     3.4120     0.7820 o          1 GMK      -0.703200
     29 O11         -0.8000    -0.7770    -1.5800 os         1 GMK      -0.435000
     30 C17         -1.8030    -1.7700    -1.8990 c6         1 GMK       0.133300
     31 C18         -1.4380    -2.4380    -3.2660 c3         1 GMK       0.167600
     32 O12         -0.1460    -3.0740    -3.2570 oh         1 GMK      -0.707000
     33 C19         -3.2230    -1.1170    -1.8870 c6         1 GMK       0.120300
     34 O13         -3.3670    -0.0970    -2.9030 oh         1 GMK      -0.698000
     35 C20         -3.4590    -0.5010    -0.4700 c6         1 GMK       0.105700
     36 N2          -4.8110     0.0890    -0.3570 ns         1 GMK      -0.470900
     37 C21         -5.9830    -0.6170    -0.2310 c          1 GMK       0.611700
     38 O14         -5.9770    -1.8420    -0.2090 o          1 GMK      -0.646100
     39 C22         -7.2690     0.1830    -0.1380 ca         1 GMK      -0.110600
     40 C23         -7.3180     1.5750    -0.3950 ca         1 GMK      -0.096000
     41 C24         -8.5320     2.2770    -0.3000 ca         1 GMK      -0.087000
     42 C25         -9.7160     1.6070     0.0460 ca         1 GMK      -0.189000
     43 C26         -9.6880     0.2200     0.2960 ca         1 GMK       0.107100
     44 C27         -8.4730    -0.4790     0.2000 ca         1 GMK      -0.103000
     45 O15        -10.8190    -0.4950     0.6360 os         1 GMK      -0.348100
     46 C28        -12.1110     0.1250     0.7610 c3         1 GMK       0.154900
     47 H1           7.4490     0.5250     1.9520 ha         1 GMK       0.116000
     48 H2           9.6040     1.5200     2.5840 ha         1 GMK       0.109000
     49 H3          12.9670     1.3140    -0.7810 h1         1 GMK       0.037700
     50 H4          12.9890     2.0060    -2.4170 h1         1 GMK       0.037700
     51 H5          12.3010     2.9430    -1.0740 h1         1 GMK       0.037700
     52 H6          11.3550     1.9320     0.8970 ha         1 GMK       0.112000
     53 H7           8.7810     0.3270    -2.1780 ha         1 GMK       0.151000
     54 H8           5.9400    -0.2350     1.3050 hn         1 GMK       0.323500
     55 H9           4.2650    -1.5450    -0.7900 h1         1 GMK       0.097700
     56 H10          4.5950    -2.8740     1.2160 h1         1 GMK       0.035700
     57 H11          4.1730    -2.0810     3.2730 ho         1 GMK       0.496000
     58 H12          2.3850    -2.9760     0.1240 h1         1 GMK       0.053700
     59 H13          2.6610    -4.3410     2.1870 h1         1 GMK       0.020200
     60 H14          2.0400    -3.0070     3.1690 h1         1 GMK       0.020200
     61 H15          0.3900    -4.5250     2.7240 ho         1 GMK       0.499000
     62 H16          3.3230     0.7210     1.0580 h1         1 GMK       0.063700
     63 H17          2.8960     1.8100    -0.9240 ho         1 GMK       0.530000
     64 H18          1.7030    -0.9450    -0.9540 h2         1 GMK       0.077700
     65 H19         -0.9210    -0.9920     0.4950 h2         1 GMK       0.074700
     66 H20         -2.3490     1.3530    -0.9000 h1         1 GMK       0.082700
     67 H21         -1.7690    -2.5580    -1.1310 h1         1 GMK       0.053700
     68 H22         -2.2150    -3.1770    -3.5030 h1         1 GMK       0.022700
     69 H23         -1.4680    -1.6690    -4.0500 h1         1 GMK       0.022700
     70 H24          0.0220    -3.3950    -4.1740 ho         1 GMK       0.496000
     71 H25         -3.9670    -1.9120    -2.0460 h1         1 GMK       0.050700
     72 H26         -3.6590    -0.5430    -3.7310 ho         1 GMK       0.490000
     73 H27         -3.3890    -1.3090     0.2740 h1         1 GMK       0.080700
     74 H28         -4.8700     1.1000    -0.2600 hn         1 GMK       0.367500
     75 H29         -6.4290     2.1290    -0.6850 ha         1 GMK       0.171000
     76 H30         -8.5540     3.3460    -0.5010 ha         1 GMK       0.116000
     77 H31        -10.6380     2.1770     0.1110 ha         1 GMK       0.105000
     78 H32         -8.4710    -1.5480     0.3970 ha         1 GMK       0.136000
     79 H33        -12.0980     0.9000     1.5380 h1         1 GMK       0.033033
     80 H34        -12.4170     0.5830    -0.1890 h1         1 GMK       0.033033
     81 H35        -12.8660    -0.6210     1.0370 h1         1 GMK       0.033033
     82 O2          11.1140     1.3560    -1.7610 os         1 GMK      -0.338100
@<TRIPOS>BOND
     1     1     2 2   
     2     2     3 1   
     3     2    10 1   
     4     3     4 ar  
     5     3     9 ar  
     6     4     5 ar  
     7     4    47 1   
     8     5     7 ar  
     9     5    48 1   
    10     6    49 1   
    11     6    50 1   
    12     6    51 1   
    13     6    82 1   
    14     7     8 ar  
    15     7    52 1   
    16     8     9 ar  
    17     8    82 1   
    18     9    53 1   
    19    10    11 1   
    20    10    54 1   
    21    11    12 1   
    22    11    18 1   
    23    11    55 1   
    24    12    13 1   
    25    12    14 1   
    26    12    56 1   
    27    13    57 1   
    28    14    15 1   
    29    14    17 1   
    30    14    58 1   
    31    15    16 1   
    32    15    59 1   
    33    15    60 1   
    34    16    61 1   
    35    17    20 1   
    36    18    19 1   
    37    18    20 1   
    38    18    62 1   
    39    19    63 1   
    40    20    21 1   
    41    20    64 1   
    42    21    22 1   
    43    22    23 1   
    44    22    29 1   
    45    22    65 1   
    46    23    24 1   
    47    23    35 1   
    48    23    66 1   
    49    24    25 1   
    50    25    26 1   
    51    25    27 1   
    52    25    28 1   
    53    29    30 1   
    54    30    31 1   
    55    30    33 1   
    56    30    67 1   
    57    31    32 1   
    58    31    68 1   
    59    31    69 1   
    60    32    70 1   
    61    33    34 1   
    62    33    35 1   
    63    33    71 1   
    64    34    72 1   
    65    35    36 1   
    66    35    73 1   
    67    36    37 1   
    68    36    74 1   
    69    37    38 2   
    70    37    39 1   
    71    39    40 ar  
    72    39    44 ar  
    73    40    41 ar  
    74    40    75 1   
    75    41    42 ar  
    76    41    76 1   
    77    42    43 ar  
    78    42    77 1   
    79    43    44 ar  
    80    43    45 1   
    81    44    78 1   
    82    45    46 1   
    83    46    79 1   
    84    46    80 1   
    85    46    81 1   
@<TRIPOS>SUBSTRUCTURE
     1 GMK         1 TEMP              0 ****  ****    0 ROOT
