@<TRIPOS>MOLECULE
GMK
   82    85     1     0     0
SMALL
bcc


@<TRIPOS>ATOM
      1 O1           6.0430    -1.1480    -1.5820 o          1 GMK      -0.597100
      2 C1           6.3040    -0.5350    -0.5570 c          1 GMK       0.684700
      3 C2           7.6530     0.0850    -0.3500 ca         1 GMK      -0.106600
      4 C3           8.2000     0.2780     0.9190 ca         1 GMK      -0.147000
      5 C4           9.4630     0.8320     1.0360 ca         1 GMK      -0.103000
      6 C5          11.5590     1.8990    -2.4390 c3         1 GMK       0.127700
      7 C6          10.1910     1.2070    -0.0850 ca         1 GMK      -0.205000
      8 C7           9.6480     1.0080    -1.3530 ca         1 GMK       0.128100
      9 C8           8.3810     0.4370    -1.4760 ca         1 GMK      -0.110000
     10 N1           5.4370    -0.3680     0.4550 ns         1 GMK      -0.553900
     11 C9           4.1210    -0.9510     0.5120 c6         1 GMK       0.110700
     12 C10          3.9640    -1.7760     1.7890 c6         1 GMK       0.104100
     13 O3           4.2630    -0.9460     2.8900 oh         1 GMK      -0.586800
     14 C11          2.5410    -2.3260     1.8570 c6         1 GMK       0.112100
     15 C12          2.2890    -3.1150     3.1220 c3         1 GMK       0.148400
     16 O4           1.0290    -3.7340     3.0280 oh         1 GMK      -0.575800
     17 O5           1.6040    -1.2670     1.7970 os         1 GMK      -0.350600
     18 C13          3.0310     0.1180     0.4050 c6         1 GMK       0.127100
     19 O6           3.1460     0.7110    -0.8570 oh         1 GMK      -0.592800
     20 C14          1.6690    -0.5640     0.5880 c6         1 GMK       0.144200
     21 S1           0.3770     0.7020     0.6000 ss         1 GMK      -0.146200
     22 C15         -0.9840    -0.3050    -0.0400 c6         1 GMK       0.195200
     23 C16         -2.3250     0.4200     0.0880 c6         1 GMK       0.181100
     24 O7          -2.5910     0.7020     1.4460 os         1 GMK      -0.555500
     25 S2          -2.8450     2.2800     1.8660 s6         1 GMK       1.497300
     26 O8          -3.9780     2.7230     1.0400 o          1 GMK      -0.703200
     27 O9          -3.1400     2.1320     3.2850 o          1 GMK      -0.703200
     28 O10         -1.6020     2.9800     1.5520 o          1 GMK      -0.703200
     29 O11         -0.7320    -0.5930    -1.3830 os         1 GMK      -0.388600
     30 C17         -1.6590    -1.5210    -1.9190 c6         1 GMK       0.110100
     31 C18         -1.2020    -1.8900    -3.3130 c3         1 GMK       0.144400
     32 O12          0.0270    -2.5670    -3.2210 oh         1 GMK      -0.584800
     33 C19         -3.0680    -0.9300    -1.8960 c6         1 GMK       0.097100
     34 O13         -3.1830     0.2130    -2.7080 oh         1 GMK      -0.575800
     35 C20         -3.4030    -0.5240    -0.4560 c6         1 GMK       0.105700
     36 N2          -4.7070     0.0820    -0.3420 ns         1 GMK      -0.537900
     37 C21         -5.8330    -0.6470    -0.3280 c          1 GMK       0.678700
     38 O14         -5.8380    -1.8630    -0.4720 o          1 GMK      -0.646100
     39 C22         -7.1070     0.1150    -0.1380 ca         1 GMK      -0.110600
     40 C23         -7.1690     1.2980     0.6000 ca         1 GMK      -0.114000
     41 C24         -8.3890     1.9340     0.7530 ca         1 GMK      -0.105000
     42 C25         -9.5470     1.4230     0.1820 ca         1 GMK      -0.207000
     43 C26         -9.4840     0.2380    -0.5500 ca         1 GMK       0.107100
     44 C27         -8.2610    -0.4160    -0.6950 ca         1 GMK      -0.121000
     45 O15        -10.5410    -0.3450    -1.1440 os         1 GMK      -0.324900
     46 C28        -11.8100     0.2680    -1.0220 c3         1 GMK       0.131700
     47 H1           7.6720    -0.0240     1.8150 ha         1 GMK       0.134000
     48 H2           9.8970     0.9750     2.0170 ha         1 GMK       0.127000
     49 H3          12.2780     1.2270    -1.9620 h1         1 GMK       0.037700
     50 H4          11.8710     2.0730    -3.4650 h1         1 GMK       0.037700
     51 H5          11.5580     2.8520    -1.9040 h1         1 GMK       0.037700
     52 H6          11.1720     1.6420     0.0480 ha         1 GMK       0.130000
     53 H7           7.9690     0.2750    -2.4650 ha         1 GMK       0.169000
     54 H8           5.7050     0.2040     1.2400 hn         1 GMK       0.323500
     55 H9           4.0130    -1.6250    -0.3410 h1         1 GMK       0.097700
     56 H10          4.6590    -2.6220     1.7320 h1         1 GMK       0.035700
     57 H11          4.7260    -1.4600     3.5570 ho         1 GMK       0.397000
     58 H12          2.4080    -3.0000     0.9950 h1         1 GMK       0.053700
     59 H13          3.0970    -3.8520     3.2230 h1         1 GMK       0.020200
     60 H14          2.3480    -2.4480     3.9900 h1         1 GMK       0.020200
     61 H15          0.8820    -4.2310     3.8380 ho         1 GMK       0.400000
     62 H16          3.1650     0.8530     1.2130 h1         1 GMK       0.063700
     63 H17          2.4680     1.3910    -0.9410 ho         1 GMK       0.431000
     64 H18          1.4980    -1.2320    -0.2700 h2         1 GMK       0.077700
     65 H19         -1.0180    -1.2270     0.5590 h2         1 GMK       0.074700
     66 H20         -2.2890     1.3310    -0.5200 h1         1 GMK       0.082700
     67 H21         -1.6710    -2.4360    -1.3040 h1         1 GMK       0.053700
     68 H22         -1.9810    -2.5180    -3.7650 h1         1 GMK       0.022700
     69 H23         -1.1230    -0.9830    -3.9240 h1         1 GMK       0.022700
     70 H24          0.3430    -2.7320    -4.1140 ho         1 GMK       0.397000
     71 H25         -3.7710    -1.7130    -2.2030 h1         1 GMK       0.050700
     72 H26         -3.4580    -0.0520    -3.5900 ho         1 GMK       0.391000
     73 H27         -3.3900    -1.4320     0.1550 h1         1 GMK       0.080700
     74 H28         -4.7600     1.0880    -0.2740 hn         1 GMK       0.367500
     75 H29         -6.2890     1.7120     1.0730 ha         1 GMK       0.189000
     76 H30         -8.4480     2.8460     1.3330 ha         1 GMK       0.134000
     77 H31        -10.4800     1.9520     0.3200 ha         1 GMK       0.123000
     78 H32         -8.2210    -1.3400    -1.2580 ha         1 GMK       0.154000
     79 H33        -12.1340     0.3330     0.0190 h1         1 GMK       0.033033
     80 H34        -11.8240     1.2700    -1.4600 h1         1 GMK       0.033033
     81 H35        -12.5090    -0.3610    -1.5670 h1         1 GMK       0.033033
     82 O2          10.2670     1.3290    -2.5030 os         1 GMK      -0.314900
@<TRIPOS>BOND
     1     1     2 2   
     2     2     3 1   
     3     2    10 1   
     4     3     4 ar  
     5     3     9 ar  
     6     4     5 ar  
     7     4    47 1   
     8     5     7 ar  
     9     5    48 1   
    10     6    49 1   
    11     6    50 1   
    12     6    51 1   
    13     6    82 1   
    14     7     8 ar  
    15     7    52 1   
    16     8     9 ar  
    17     8    82 1   
    18     9    53 1   
    19    10    11 1   
    20    10    54 1   
    21    11    12 1   
    22    11    18 1   
    23    11    55 1   
    24    12    13 1   
    25    12    14 1   
    26    12    56 1   
    27    13    57 1   
    28    14    15 1   
    29    14    17 1   
    30    14    58 1   
    31    15    16 1   
    32    15    59 1   
    33    15    60 1   
    34    16    61 1   
    35    17    20 1   
    36    18    19 1   
    37    18    20 1   
    38    18    62 1   
    39    19    63 1   
    40    20    21 1   
    41    20    64 1   
    42    21    22 1   
    43    22    23 1   
    44    22    29 1   
    45    22    65 1   
    46    23    24 1   
    47    23    35 1   
    48    23    66 1   
    49    24    25 1   
    50    25    26 1   
    51    25    27 1   
    52    25    28 1   
    53    29    30 1   
    54    30    31 1   
    55    30    33 1   
    56    30    67 1   
    57    31    32 1   
    58    31    68 1   
    59    31    69 1   
    60    32    70 1   
    61    33    34 1   
    62    33    35 1   
    63    33    71 1   
    64    34    72 1   
    65    35    36 1   
    66    35    73 1   
    67    36    37 1   
    68    36    74 1   
    69    37    38 2   
    70    37    39 1   
    71    39    40 ar  
    72    39    44 ar  
    73    40    41 ar  
    74    40    75 1   
    75    41    42 ar  
    76    41    76 1   
    77    42    43 ar  
    78    42    77 1   
    79    43    44 ar  
    80    43    45 1   
    81    44    78 1   
    82    45    46 1   
    83    46    79 1   
    84    46    80 1   
    85    46    81 1   
@<TRIPOS>SUBSTRUCTURE
     1 GMK         1 TEMP              0 ****  ****    0 ROOT
