@<TRIPOS>MOLECULE
GMM
  200   200     1     0     0
SMALL
bcc


@<TRIPOS>ATOM
      1 CAH         -2.6600     8.8510   -24.4920 c3         1 GMM      -0.089100
      2 CAI         -2.8000     8.0230   -23.2220 c3         1 GMM      -0.074400
      3 CAJ         -2.6660     8.8580   -21.9550 c3         1 GMM      -0.075400
      4 CAK         -2.8060     8.0440   -20.6750 c3         1 GMM      -0.074400
      5 CAL         -2.6490     8.8830   -19.4120 c3         1 GMM      -0.074400
      6 CAM         -2.7880     8.0770   -18.1270 c3         1 GMM      -0.073400
      7 CAN         -2.6050     8.9210   -16.8720 c3         1 GMM      -0.075400
      8 CAO         -2.7440     8.1310   -15.5760 c3         1 GMM      -0.073400
      9 CAP         -2.5090     8.9840   -14.3370 c3         1 GMM      -0.075400
     10 CAQ         -2.6600     8.2250   -13.0240 c3         1 GMM      -0.073400
     11 CAR         -2.3040     9.0770   -11.8120 c3         1 GMM      -0.075400
     12 CAS         -2.5300     8.3840   -10.4730 c3         1 GMM      -0.073400
     13 CAT         -1.9640     9.1810    -9.3030 c3         1 GMM      -0.075400
     14 CAU         -2.3370     8.6270    -7.9340 c3         1 GMM      -0.073400
     15 CAV         -1.6570     9.3720    -6.7930 c3         1 GMM      -0.074400
     16 CAW         -2.0790     8.8960    -5.4090 c3         1 GMM      -0.074400
     17 CAX         -1.3450     9.6220    -4.2890 c3         1 GMM      -0.073400
     18 CAY         -1.7820     9.1810    -2.8910 c3         1 GMM      -0.043200
     19 CAZ         -1.0630     9.9410    -1.8200 c2         1 GMM      -0.166200
     20 CBA         -0.2390     9.4600    -0.8900 c2         1 GMM      -0.166200
     21 CBB          0.1320     8.0320    -0.6390 c3         1 GMM      -0.042200
     22 CBC         -0.3120     7.5690     0.7500 c3         1 GMM      -0.073400
     23 CBD          0.0960     6.1360     1.0690 c3         1 GMM      -0.074400
     24 CBE         -0.3190     5.6990     2.4680 c3         1 GMM      -0.074400
     25 CBF          0.0570     4.2560     2.7890 c3         1 GMM      -0.075400
     26 CBG         -0.3350     3.8340     4.2000 c3         1 GMM      -0.075400
     27 CBH         -0.0130     2.3730     4.4940 c3         1 GMM      -0.069400
     28 CBI         -0.4290     1.9070     5.8940 c3         1 GMM      -0.042200
     29 CBJ          0.3320     2.5860     6.9910 c2         1 GMM      -0.165200
     30 CBK          1.2720     2.0470     7.7690 c2         1 GMM      -0.167200
     31 CBL          1.7610     0.6320     7.7640 c3         1 GMM      -0.043200
     32 CBM          1.5520    -0.0610     9.1120 c3         1 GMM      -0.072400
     33 CBN          1.9850    -1.5210     9.0960 c3         1 GMM      -0.075400
     34 CBO          1.8430    -2.2040    10.4510 c3         1 GMM      -0.074400
     35 CBP          2.1510    -3.6960    10.4060 c3         1 GMM      -0.075400
     36 CBQ          2.1350    -4.3580    11.7790 c3         1 GMM      -0.075400
     37 CBR          2.3110    -5.8710    11.7070 c3         1 GMM      -0.073400
     38 CBS          2.5640    -6.5370    13.0570 c3         1 GMM      -0.070400
     39 CBT          1.5000    -6.2790    14.1200 c3         1 GMM      -0.073400
     40 CBU          0.0990    -6.7540    13.7490 c3         1 GMM      -0.074400
     41 CBV         -0.9000    -6.5370    14.8790 c3         1 GMM      -0.076400
     42 CBW         -2.3220    -6.9700    14.5450 c3         1 GMM      -0.073400
     43 CBX         -3.2900    -6.7310    15.6970 c3         1 GMM      -0.075400
     44 CBY         -4.7280    -7.1270    15.3930 c3         1 GMM      -0.073400
     45 CBZ         -5.6670    -6.8710    16.5650 c3         1 GMM      -0.075400
     46 CCA         -7.1210    -7.2250    16.2800 c3         1 GMM      -0.073400
     47 CCB         -8.0330    -6.9750    17.4750 c3         1 GMM      -0.076400
     48 CCC         -9.5010    -7.2680    17.1920 c3         1 GMM      -0.069400
     49 CCD        -10.3780    -7.0720    18.4230 c3         1 GMM      -0.111400
     50 CCE        -11.8730    -7.1900    18.1360 c3         1 GMM       0.157100
     51 OCF        -12.2100    -8.4060    17.5110 oh         1 GMM      -0.590800
     52 CCG        -12.7230    -6.9010    19.3930 c3         1 GMM      -0.153700
     53 CCH        -14.2250    -6.9340    19.0900 c3         1 GMM      -0.061400
     54 CCI        -15.1290    -6.6480    20.2870 c3         1 GMM      -0.078400
     55 CCJ        -14.9150    -5.2850    20.9350 c3         1 GMM      -0.076400
     56 CCK        -15.9180    -4.9970    22.0450 c3         1 GMM      -0.071400
     57 CCL        -15.7160    -3.6340    22.6910 c3         1 GMM      -0.078400
     58 CCM        -16.6660    -3.3720    23.8520 c3         1 GMM      -0.071400
     59 CCN        -16.4380    -2.0260    24.5290 c3         1 GMM      -0.076400
     60 CCO        -17.3930    -1.7770    25.6880 c3         1 GMM      -0.088100
     61 CCQ        -12.3940    -7.8900    20.4830 c          1 GMM       0.646100
     62 OCR        -12.5850    -9.0810    20.3880 o          1 GMM      -0.559000
     63 OCS        -11.8630    -7.3210    21.5570 os         1 GMM      -0.405900
     64 CCT        -11.5550    -8.1440    22.6850 c3         1 GMM       0.111400
     65 CCU        -12.8000    -8.3580    23.5440 c6         1 GMM       0.100100
     66 OCV        -13.4510    -7.1510    23.8670 os         1 GMM      -0.429600
     67 CCW        -12.7610    -6.2970    24.7520 c6         1 GMM       0.317900
     68 OCX        -13.5030    -5.1470    24.9110 oh         1 GMM      -0.555800
     69 CCY        -12.4950    -7.0200    26.0790 c6         1 GMM       0.043100
     70 OCZ        -11.8380    -6.1870    26.9960 oh         1 GMM      -0.563800
     71 CDA        -11.7420    -8.3300    25.8370 c6         1 GMM       0.118100
     72 ODB        -11.5050    -9.0320    27.0290 oh         1 GMM      -0.559800
     73 CDC        -12.5020    -9.1710    24.8160 c6         1 GMM       0.089100
     74 ODD        -11.7490   -10.3230    24.5390 oh         1 GMM      -0.574800
     75 HAH1        -2.7430     8.2340   -25.3880 hc         1 GMM       0.031367
     76 HAH2        -1.6910     9.3540   -24.5270 hc         1 GMM       0.031367
     77 HAH3        -3.4310     9.6220   -24.5490 hc         1 GMM       0.031367
     78 HAI1        -3.7700     7.5150   -23.2200 hc         1 GMM       0.036700
     79 HAI2        -2.0450     7.2320   -23.2160 hc         1 GMM       0.036700
     80 HAJ1        -1.6930     9.3640   -21.9580 hc         1 GMM       0.036700
     81 HAJ2        -3.4190     9.6540   -21.9640 hc         1 GMM       0.036700
     82 HAK1        -3.7830     7.5480   -20.6640 hc         1 GMM       0.036700
     83 HAK2        -2.0590     7.2420   -20.6720 hc         1 GMM       0.036700
     84 HAL1        -3.3920     9.6880   -19.4170 hc         1 GMM       0.036700
     85 HAL2        -1.6700     9.3760   -19.4250 hc         1 GMM       0.036700
     86 HAM1        -3.7720     7.5960   -18.1040 hc         1 GMM       0.037200
     87 HAM2        -2.0540     7.2640   -18.1270 hc         1 GMM       0.037200
     88 HAN1        -1.6180     9.3980   -16.8990 hc         1 GMM       0.036700
     89 HAN2        -3.3340     9.7390   -16.8760 hc         1 GMM       0.036700
     90 HAO1        -3.7410     7.6790   -15.5300 hc         1 GMM       0.037200
     91 HAO2        -2.0330     7.2970   -15.5820 hc         1 GMM       0.037200
     92 HAP1        -3.2040     9.8320   -14.3430 hc         1 GMM       0.036700
     93 HAP2        -1.5050     9.4200   -14.3870 hc         1 GMM       0.036700
     94 HAQ1        -3.6870     7.8550   -12.9320 hc         1 GMM       0.037200
     95 HAQ2        -2.0160     7.3380   -13.0400 hc         1 GMM       0.037200
     96 HAR1        -1.2550     9.3810   -11.8910 hc         1 GMM       0.036700
     97 HAR2        -2.8890    10.0030   -11.8340 hc         1 GMM       0.036700
     98 HAS1        -2.0710     7.3900   -10.4890 hc         1 GMM       0.037700
     99 HAS2        -3.6030     8.2210   -10.3260 hc         1 GMM       0.037700
    100 HAT1        -0.8730     9.2200    -9.3960 hc         1 GMM       0.036700
    101 HAT2        -2.3060    10.2200    -9.3730 hc         1 GMM       0.036700
    102 HAU1        -3.4250     8.6750    -7.8100 hc         1 GMM       0.037700
    103 HAU2        -2.0750     7.5640    -7.8810 hc         1 GMM       0.037700
    104 HAV1        -1.8660    10.4430    -6.8840 hc         1 GMM       0.037200
    105 HAV2        -0.5710     9.2690    -6.8940 hc         1 GMM       0.037200
    106 HAW1        -3.1590     9.0370    -5.2900 hc         1 GMM       0.037200
    107 HAW2        -1.9030     7.8190    -5.3210 hc         1 GMM       0.037200
    108 HAX1        -1.5000    10.7010    -4.3920 hc         1 GMM       0.039200
    109 HAX2        -0.2670     9.4580    -4.3950 hc         1 GMM       0.039200
    110 HAY1        -2.8600     9.3510    -2.7920 hc         1 GMM       0.044200
    111 HAY2        -1.6300     8.1040    -2.7840 hc         1 GMM       0.044200
    112 HAZ         -1.2260    11.0160    -1.8370 ha         1 GMM       0.114000
    113 HBA          0.2100    10.1740    -0.2040 ha         1 GMM       0.114000
    114 HBB1         1.2200     7.9260    -0.7120 hc         1 GMM       0.044200
    115 HBB2        -0.2940     7.3720    -1.3990 hc         1 GMM       0.044200
    116 HBC1         0.1090     8.2420     1.5050 hc         1 GMM       0.039200
    117 HBC2        -1.4000     7.6660     0.8280 hc         1 GMM       0.039200
    118 HBD1        -0.3460     5.4590     0.3290 hc         1 GMM       0.037200
    119 HBD2         1.1810     6.0350     0.9630 hc         1 GMM       0.037200
    120 HBE1        -1.4010     5.8230     2.5810 hc         1 GMM       0.037700
    121 HBE2         0.1410     6.3660     3.2050 hc         1 GMM       0.037700
    122 HBF1        -0.4220     3.5890     2.0640 hc         1 GMM       0.037200
    123 HBF2         1.1360     4.1230     2.6580 hc         1 GMM       0.037200
    124 HBG1        -1.4090     4.0000     4.3440 hc         1 GMM       0.038200
    125 HBG2         0.1720     4.4840     4.9200 hc         1 GMM       0.038200
    126 HBH1        -0.5190     1.7440     3.7540 hc         1 GMM       0.038700
    127 HBH2         1.0600     2.1980     4.3640 hc         1 GMM       0.038700
    128 HBI1        -1.4990     2.1020     6.0240 hc         1 GMM       0.043700
    129 HBI2        -0.3060     0.8240     5.9540 hc         1 GMM       0.043700
    130 HBJ          0.0990     3.6350     7.1480 ha         1 GMM       0.116000
    131 HBK          1.7380     2.6910     8.5120 ha         1 GMM       0.114000
    132 HBL1         2.8310     0.6230     7.5290 hc         1 GMM       0.043700
    133 HBL2         1.2730     0.0500     6.9790 hc         1 GMM       0.043700
    134 HBM1         2.1030     0.4790     9.8890 hc         1 GMM       0.039200
    135 HBM2         0.4950     0.0000     9.3890 hc         1 GMM       0.039200
    136 HBN1         1.3910    -2.0610     8.3500 hc         1 GMM       0.036700
    137 HBN2         3.0260    -1.5920     8.7620 hc         1 GMM       0.036700
    138 HBO1         2.5050    -1.7150    11.1730 hc         1 GMM       0.037700
    139 HBO2         0.8250    -2.0580    10.8270 hc         1 GMM       0.037700
    140 HBP1         3.1340    -3.8540     9.9480 hc         1 GMM       0.036200
    141 HBP2         1.4290    -4.1920     9.7490 hc         1 GMM       0.036200
    142 HBQ1         1.1950    -4.1160    12.2860 hc         1 GMM       0.038200
    143 HBQ2         2.9300    -3.9240    12.3960 hc         1 GMM       0.038200
    144 HBR1         1.4310    -6.3120    11.2280 hc         1 GMM       0.036700
    145 HBR2         3.1530    -6.1000    11.0460 hc         1 GMM       0.036700
    146 HBS1         2.6670    -7.6170    12.9080 hc         1 GMM       0.037200
    147 HBS2         3.5310    -6.1940    13.4410 hc         1 GMM       0.037200
    148 HBT1         1.8070    -6.7770    15.0460 hc         1 GMM       0.036700
    149 HBT2         1.4630    -5.2110    14.3560 hc         1 GMM       0.036700
    150 HBU1         0.1300    -7.8170    13.4840 hc         1 GMM       0.038200
    151 HBU2        -0.2510    -6.2300    12.8530 hc         1 GMM       0.038200
    152 HBV1        -0.5580    -7.0760    15.7700 hc         1 GMM       0.035700
    153 HBV2        -0.9040    -5.4760    15.1530 hc         1 GMM       0.035700
    154 HBW1        -2.6690    -6.4280    13.6580 hc         1 GMM       0.037700
    155 HBW2        -2.3290    -8.0310    14.2740 hc         1 GMM       0.037700
    156 HBX1        -2.9420    -7.2810    16.5790 hc         1 GMM       0.036700
    157 HBX2        -3.2610    -5.6710    15.9750 hc         1 GMM       0.036700
    158 HBY1        -4.7680    -8.1870    15.1190 hc         1 GMM       0.037700
    159 HBY2        -5.0810    -6.5740    14.5150 hc         1 GMM       0.037700
    160 HBZ1        -5.6040    -5.8150    16.8510 hc         1 GMM       0.036200
    161 HBZ2        -5.3200    -7.4380    17.4360 hc         1 GMM       0.036200
    162 HCA1        -7.4760    -6.6440    15.4210 hc         1 GMM       0.039200
    163 HCA2        -7.1910    -8.2770    15.9840 hc         1 GMM       0.039200
    164 HCB1        -7.6950    -7.5850    18.3200 hc         1 GMM       0.036200
    165 HCB2        -7.9290    -5.9330    17.7970 hc         1 GMM       0.036200
    166 HCC1        -9.8510    -6.6160    16.3830 hc         1 GMM       0.046700
    167 HCC2        -9.6040    -8.2930    16.8250 hc         1 GMM       0.046700
    168 HCD1       -10.1910    -6.0790    18.8450 hc         1 GMM       0.043700
    169 HCD2       -10.0740    -7.7910    19.1940 hc         1 GMM       0.043700
    170 HCE        -12.1340    -6.4110    17.4100 h1         1 GMM       0.075700
    171 HCF        -12.0650    -9.1250    18.1360 ho         1 GMM       0.418000
    172 HCG        -12.4480    -5.8990    19.7310 hc         1 GMM       0.082700
    173 HCH1       -14.4170    -6.1920    18.3080 hc         1 GMM       0.058200
    174 HCH2       -14.4860    -7.9050    18.6660 hc         1 GMM       0.058200
    175 HCI1       -15.0100    -7.4300    21.0460 hc         1 GMM       0.042700
    176 HCI2       -16.1670    -6.7240    19.9500 hc         1 GMM       0.042700
    177 HCJ1       -14.9770    -4.5030    20.1700 hc         1 GMM       0.040700
    178 HCJ2       -13.9090    -5.2280    21.3590 hc         1 GMM       0.040700
    179 HCK1       -16.9380    -5.0690    21.6510 hc         1 GMM       0.036700
    180 HCK2       -15.8270    -5.7750    22.8110 hc         1 GMM       0.036700
    181 HCL1       -15.8360    -2.8480    21.9370 hc         1 GMM       0.042200
    182 HCL2       -14.6840    -3.5620    23.0500 hc         1 GMM       0.042200
    183 HCM1       -16.5580    -4.1710    24.5950 hc         1 GMM       0.031700
    184 HCM2       -17.7020    -3.4300    23.4990 hc         1 GMM       0.031700
    185 HCN1       -16.5410    -1.2260    23.7890 hc         1 GMM       0.038700
    186 HCN2       -15.4050    -1.9760    24.8870 hc         1 GMM       0.038700
    187 HCO1       -17.2100    -0.8120    26.1620 hc         1 GMM       0.030367
    188 HCO2       -18.4320    -1.7880    25.3500 hc         1 GMM       0.030367
    189 HCO3       -17.2900    -2.5480    26.4540 hc         1 GMM       0.030367
    190 HCT1       -11.1480    -9.1030    22.3690 h1         1 GMM       0.073700
    191 HCT2       -10.7670    -7.6090    23.2130 h1         1 GMM       0.073700
    192 HCU        -13.5280    -8.9180    22.9500 h1         1 GMM       0.092700
    193 HCW        -11.8060    -5.9710    24.3150 h2         1 GMM       0.069700
    194 HCX        -14.3270    -5.3530    25.3670 ho         1 GMM       0.418000
    195 HCY        -13.4680    -7.2570    26.5300 h1         1 GMM       0.078700
    196 HCZ        -10.9550    -5.9870    26.6650 ho         1 GMM       0.410000
    197 HDA        -10.7450    -8.0940    25.4410 h1         1 GMM       0.083700
    198 HDB        -12.3510    -9.2490    27.4360 ho         1 GMM       0.404000
    199 HDC        -13.4740    -9.4360    25.2610 h1         1 GMM       0.041700
    200 HDD        -12.3000   -10.9420    24.0500 ho         1 GMM       0.414000
@<TRIPOS>BOND
     1     1     2 1   
     2     1    75 1   
     3     1    76 1   
     4     1    77 1   
     5     2     3 1   
     6     2    78 1   
     7     2    79 1   
     8     3     4 1   
     9     3    80 1   
    10     3    81 1   
    11     4     5 1   
    12     4    82 1   
    13     4    83 1   
    14     5     6 1   
    15     5    84 1   
    16     5    85 1   
    17     6     7 1   
    18     6    86 1   
    19     6    87 1   
    20     7     8 1   
    21     7    88 1   
    22     7    89 1   
    23     8     9 1   
    24     8    90 1   
    25     8    91 1   
    26     9    10 1   
    27     9    92 1   
    28     9    93 1   
    29    10    11 1   
    30    10    94 1   
    31    10    95 1   
    32    11    12 1   
    33    11    96 1   
    34    11    97 1   
    35    12    13 1   
    36    12    98 1   
    37    12    99 1   
    38    13    14 1   
    39    13   100 1   
    40    13   101 1   
    41    14    15 1   
    42    14   102 1   
    43    14   103 1   
    44    15    16 1   
    45    15   104 1   
    46    15   105 1   
    47    16    17 1   
    48    16   106 1   
    49    16   107 1   
    50    17    18 1   
    51    17   108 1   
    52    17   109 1   
    53    18    19 1   
    54    18   110 1   
    55    18   111 1   
    56    19    20 2   
    57    19   112 1   
    58    20    21 1   
    59    20   113 1   
    60    21    22 1   
    61    21   114 1   
    62    21   115 1   
    63    22    23 1   
    64    22   116 1   
    65    22   117 1   
    66    23    24 1   
    67    23   118 1   
    68    23   119 1   
    69    24    25 1   
    70    24   120 1   
    71    24   121 1   
    72    25    26 1   
    73    25   122 1   
    74    25   123 1   
    75    26    27 1   
    76    26   124 1   
    77    26   125 1   
    78    27    28 1   
    79    27   126 1   
    80    27   127 1   
    81    28    29 1   
    82    28   128 1   
    83    28   129 1   
    84    29    30 2   
    85    29   130 1   
    86    30    31 1   
    87    30   131 1   
    88    31    32 1   
    89    31   132 1   
    90    31   133 1   
    91    32    33 1   
    92    32   134 1   
    93    32   135 1   
    94    33    34 1   
    95    33   136 1   
    96    33   137 1   
    97    34    35 1   
    98    34   138 1   
    99    34   139 1   
   100    35    36 1   
   101    35   140 1   
   102    35   141 1   
   103    36    37 1   
   104    36   142 1   
   105    36   143 1   
   106    37    38 1   
   107    37   144 1   
   108    37   145 1   
   109    38    39 1   
   110    38   146 1   
   111    38   147 1   
   112    39    40 1   
   113    39   148 1   
   114    39   149 1   
   115    40    41 1   
   116    40   150 1   
   117    40   151 1   
   118    41    42 1   
   119    41   152 1   
   120    41   153 1   
   121    42    43 1   
   122    42   154 1   
   123    42   155 1   
   124    43    44 1   
   125    43   156 1   
   126    43   157 1   
   127    44    45 1   
   128    44   158 1   
   129    44   159 1   
   130    45    46 1   
   131    45   160 1   
   132    45   161 1   
   133    46    47 1   
   134    46   162 1   
   135    46   163 1   
   136    47    48 1   
   137    47   164 1   
   138    47   165 1   
   139    48    49 1   
   140    48   166 1   
   141    48   167 1   
   142    49    50 1   
   143    49   168 1   
   144    49   169 1   
   145    50    51 1   
   146    50    52 1   
   147    50   170 1   
   148    51   171 1   
   149    52    53 1   
   150    52    61 1   
   151    52   172 1   
   152    53    54 1   
   153    53   173 1   
   154    53   174 1   
   155    54    55 1   
   156    54   175 1   
   157    54   176 1   
   158    55    56 1   
   159    55   177 1   
   160    55   178 1   
   161    56    57 1   
   162    56   179 1   
   163    56   180 1   
   164    57    58 1   
   165    57   181 1   
   166    57   182 1   
   167    58    59 1   
   168    58   183 1   
   169    58   184 1   
   170    59    60 1   
   171    59   185 1   
   172    59   186 1   
   173    60   187 1   
   174    60   188 1   
   175    60   189 1   
   176    61    62 2   
   177    61    63 1   
   178    63    64 1   
   179    64    65 1   
   180    64   190 1   
   181    64   191 1   
   182    65    66 1   
   183    65    73 1   
   184    65   192 1   
   185    66    67 1   
   186    67    68 1   
   187    67    69 1   
   188    67   193 1   
   189    68   194 1   
   190    69    70 1   
   191    69    71 1   
   192    69   195 1   
   193    70   196 1   
   194    71    72 1   
   195    71    73 1   
   196    71   197 1   
   197    72   198 1   
   198    73    74 1   
   199    73   199 1   
   200    74   200 1   
@<TRIPOS>SUBSTRUCTURE
     1 GMM         1 TEMP              0 ****  ****    0 ROOT
