@<TRIPOS>MOLECULE
GMM
  200   200     1     0     0
SMALL
No Charge or Current Charge


@<TRIPOS>ATOM
      1 CAH         -3.9240     6.1120   -23.6900 c3         1 GMM      -0.089100
      2 CAI         -4.5090     6.1170   -22.2650 c3         1 GMM      -0.074400
      3 CAJ         -3.5190     6.6490   -21.2060 c3         1 GMM      -0.075400
      4 CAK         -4.1060     6.6540   -19.7770 c3         1 GMM      -0.074400
      5 CAL         -3.1140     7.1860   -18.7190 c3         1 GMM      -0.074400
      6 CAM         -3.7000     7.1910   -17.2890 c3         1 GMM      -0.073400
      7 CAN         -2.7070     7.7230   -16.2330 c3         1 GMM      -0.075400
      8 CAO         -3.2880     7.7250   -14.8020 c3         1 GMM      -0.073400
      9 CAP         -2.2920     8.2550   -13.7470 c3         1 GMM      -0.075400
     10 CAQ         -2.8690     8.2530   -12.3140 c3         1 GMM      -0.073400
     11 CAR         -1.8700     8.7800   -11.2610 c3         1 GMM      -0.075400
     12 CAS         -2.4410     8.7730    -9.8260 c3         1 GMM      -0.073400
     13 CAT         -1.4370     9.2960    -8.7750 c3         1 GMM      -0.075400
     14 CAU         -2.0030     9.2840    -7.3380 c3         1 GMM      -0.073400
     15 CAV         -0.9940     9.8020    -6.2890 c3         1 GMM      -0.074400
     16 CAW         -1.5530     9.7850    -4.8490 c3         1 GMM      -0.074400
     17 CAX         -0.5400    10.2990    -3.8030 c3         1 GMM      -0.073400
     18 CAY         -1.0890    10.2800    -2.3610 c3         1 GMM      -0.043200
     19 CAZ         -0.0690    10.7930    -1.3590 c2         1 GMM      -0.216200
     20 CBA          0.4720    10.1290    -0.3210 c2         1 GMM      -0.216200
     21 CBB          0.1750     8.7040     0.1160 c3         1 GMM      -0.042200
     22 CBC          0.3870     8.4940     1.6320 c3         1 GMM      -0.073400
     23 CBD          0.0740     7.0550     2.0970 c3         1 GMM      -0.074400
     24 CBE          0.3070     6.8460     3.6090 c3         1 GMM      -0.074400
     25 CBF         -0.0050     5.4080     4.0790 c3         1 GMM      -0.075400
     26 CBG          0.2500     5.2000     5.5880 c3         1 GMM      -0.075400
     27 CBH         -0.0570     3.7600     6.0620 c3         1 GMM      -0.069400
     28 CBI          0.1750     3.5360     7.5730 c3         1 GMM      -0.042200
     29 CBJ          1.6260     3.7160     7.9820 c2         1 GMM      -0.215200
     30 CBK          2.5750     2.7650     8.0440 c2         1 GMM      -0.217200
     31 CBL          2.4250     1.2960     7.6910 c3         1 GMM      -0.043200
     32 CBM          2.4280     0.3990     8.9450 c3         1 GMM      -0.072400
     33 CBN          2.2720    -1.1040     8.6210 c3         1 GMM      -0.075400
     34 CBO          2.3220    -2.0000     9.8780 c3         1 GMM      -0.074400
     35 CBP          2.1600    -3.5020     9.5580 c3         1 GMM      -0.075400
     36 CBQ          2.2630    -4.4000    10.8100 c3         1 GMM      -0.075400
     37 CBR          2.0900    -5.9040    10.4930 c3         1 GMM      -0.073400
     38 CBS          2.3300    -6.8460    11.7000 c3         1 GMM      -0.070400
     39 CBT          1.3980    -6.6370    12.9200 c3         1 GMM      -0.073400
     40 CBU         -0.1030    -6.8620    12.6270 c3         1 GMM      -0.074400
     41 CBV         -0.9850    -6.7380    13.8890 c3         1 GMM      -0.076400
     42 CBW         -2.4850    -6.9760    13.6070 c3         1 GMM      -0.073400
     43 CBX         -3.3620    -6.8570    14.8720 c3         1 GMM      -0.075400
     44 CBY         -4.8610    -7.1090    14.5970 c3         1 GMM      -0.073400
     45 CBZ         -5.7340    -6.9900    15.8660 c3         1 GMM      -0.075400
     46 CCA         -7.2330    -7.2490    15.5960 c3         1 GMM      -0.073400
     47 CCB         -8.1030    -7.1290    16.8670 c3         1 GMM      -0.076400
     48 CCC         -9.6020    -7.3890    16.6020 c3         1 GMM      -0.069400
     49 CCD        -10.4690    -7.2620    17.8770 c3         1 GMM      -0.111400
     50 CCE        -11.9860    -7.4720    17.6330 c3         1 GMM       0.180300
     51 OCF        -12.2140    -8.8230    17.2140 oh         1 GMM      -0.653000
     52 CCG        -12.8530    -7.1580    18.8820 c3         1 GMM      -0.153700
     53 CCH        -14.3830    -7.2360    18.5980 c3         1 GMM      -0.061400
     54 CCI        -15.3020    -6.9140    19.8040 c3         1 GMM      -0.078400
     55 CCJ        -15.1570    -5.4780    20.3580 c3         1 GMM      -0.076400
     56 CCK        -16.1750    -5.1610    21.4740 c3         1 GMM      -0.071400
     57 CCL        -16.0380    -3.7240    22.0250 c3         1 GMM      -0.078400
     58 CCM        -17.0340    -3.4170    23.1650 c3         1 GMM      -0.071400
     59 CCN        -16.8910    -1.9840    23.7220 c3         1 GMM      -0.076400
     60 CCO        -17.8830    -1.6770    24.8600 c3         1 GMM      -0.088100
     61 CCQ        -12.4530    -8.0340    20.0780 c          1 GMM       0.597100
     62 OCR        -12.5440    -9.2550    20.0730 o          1 GMM      -0.510000
     63 OCS        -11.8720    -7.3030    21.0820 os         1 GMM      -0.429100
     64 CCT        -11.4640    -7.9780    22.2920 c3         1 GMM       0.134600
     65 CCU        -12.7180    -8.3810    23.1500 c6         1 GMM       0.123300
     66 OCV        -13.4960    -7.1970    23.4910 os         1 GMM      -0.476000
     67 CCW        -12.8590    -6.2680    24.3780 c6         1 GMM       0.364300
     68 OCX        -13.8170    -5.2440    24.5220 oh         1 GMM      -0.678000
     69 CCY        -12.5450    -6.9620    25.7510 c6         1 GMM       0.066300
     70 OCZ        -11.8620    -6.0860    26.6790 oh         1 GMM      -0.686000
     71 CDA        -11.6850    -8.2350    25.5000 c6         1 GMM       0.141300
     72 ODB        -11.4510    -8.9390    26.7380 oh         1 GMM      -0.682000
     73 CDC        -12.3750    -9.1680    24.4570 c6         1 GMM       0.112300
     74 ODD        -11.5470   -10.3130    24.1880 oh         1 GMM      -0.697000
     75 HAH1        -4.6620     5.7270   -24.4050 hc         1 GMM       0.031367
     76 HAH2        -3.0320     5.4760   -23.7420 hc         1 GMM       0.031367
     77 HAH3        -3.6450     7.1270   -23.9990 hc         1 GMM       0.031367
     78 HAI1        -5.4180     6.7320   -22.2550 hc         1 GMM       0.036700
     79 HAI2        -4.8110     5.0950   -22.0000 hc         1 GMM       0.036700
     80 HAJ1        -2.6110     6.0320   -21.2200 hc         1 GMM       0.036700
     81 HAJ2        -3.2180     7.6690   -21.4750 hc         1 GMM       0.036700
     82 HAK1        -5.0130     7.2700   -19.7620 hc         1 GMM       0.036700
     83 HAK2        -4.4070     5.6340   -19.5080 hc         1 GMM       0.036700
     84 HAL1        -2.8140     8.2060   -18.9880 hc         1 GMM       0.036700
     85 HAL2        -2.2070     6.5700   -18.7340 hc         1 GMM       0.036700
     86 HAM1        -4.6070     7.8070   -17.2730 hc         1 GMM       0.037200
     87 HAM2        -4.0000     6.1700   -17.0200 hc         1 GMM       0.037200
     88 HAN1        -1.7980     7.1080   -16.2510 hc         1 GMM       0.036700
     89 HAN2        -2.4080     8.7440   -16.5010 hc         1 GMM       0.036700
     90 HAO1        -4.1960     8.3410   -14.7820 hc         1 GMM       0.037200
     91 HAO2        -3.5880     6.7040   -14.5330 hc         1 GMM       0.037200
     92 HAP1        -1.9950     9.2770   -14.0140 hc         1 GMM       0.036700
     93 HAP2        -1.3830     7.6410   -13.7700 hc         1 GMM       0.036700
     94 HAQ1        -3.7770     8.8690   -12.2900 hc         1 GMM       0.037200
     95 HAQ2        -3.1670     7.2310   -12.0480 hc         1 GMM       0.037200
     96 HAR1        -0.9600     8.1660   -11.2890 hc         1 GMM       0.036700
     97 HAR2        -1.5740     9.8030   -11.5260 hc         1 GMM       0.036700
     98 HAS1        -2.7380     7.7500    -9.5620 hc         1 GMM       0.037700
     99 HAS2        -3.3480     9.3890    -9.7960 hc         1 GMM       0.037700
    100 HAT1        -0.5280     8.6820    -8.8090 hc         1 GMM       0.036700
    101 HAT2        -1.1420    10.3200    -9.0380 hc         1 GMM       0.036700
    102 HAU1        -2.9090     9.9020    -7.3020 hc         1 GMM       0.037700
    103 HAU2        -2.3010     8.2610    -7.0760 hc         1 GMM       0.037700
    104 HAV1        -0.6980    10.8260    -6.5490 hc         1 GMM       0.037200
    105 HAV2        -0.0860     9.1870    -6.3290 hc         1 GMM       0.037200
    106 HAW1        -2.4590    10.4030    -4.8070 hc         1 GMM       0.037200
    107 HAW2        -1.8510     8.7620    -4.5910 hc         1 GMM       0.037200
    108 HAX1        -0.2430    11.3230    -4.0610 hc         1 GMM       0.039200
    109 HAX2         0.3670     9.6820    -3.8460 hc         1 GMM       0.039200
    110 HAY1        -1.9920    10.9010    -2.3140 hc         1 GMM       0.044200
    111 HAY2        -1.4070     9.2580    -2.1240 hc         1 GMM       0.044200
    112 HAZ          0.2390    11.8240    -1.5470 ha         1 GMM       0.164000
    113 HBA          1.2070    10.6390     0.3050 ha         1 GMM       0.164000
    114 HBB1         0.8290     8.0120    -0.4290 hc         1 GMM       0.044200
    115 HBB2        -0.8550     8.4250    -0.1320 hc         1 GMM       0.044200
    116 HBC1         1.4260     8.7360     1.8870 hc         1 GMM       0.039200
    117 HBC2        -0.2510     9.1970     2.1830 hc         1 GMM       0.039200
    118 HBD1        -0.9700     6.8160     1.8560 hc         1 GMM       0.037200
    119 HBD2         0.7010     6.3510     1.5360 hc         1 GMM       0.037200
    120 HBE1        -0.3180     7.5520     4.1710 hc         1 GMM       0.037700
    121 HBE2         1.3510     7.0840     3.8480 hc         1 GMM       0.037700
    122 HBF1        -1.0530     5.1750     3.8540 hc         1 GMM       0.037200
    123 HBF2         0.6110     4.7010     3.5090 hc         1 GMM       0.037200
    124 HBG1        -0.3660     5.9050     6.1590 hc         1 GMM       0.038200
    125 HBG2         1.2980     5.4390     5.8070 hc         1 GMM       0.038200
    126 HBH1        -1.1020     3.5230     5.8280 hc         1 GMM       0.038700
    127 HBH2         0.5610     3.0510     5.4960 hc         1 GMM       0.038700
    128 HBI1        -0.4610     4.2250     8.1420 hc         1 GMM       0.043700
    129 HBI2        -0.1740     2.5300     7.8330 hc         1 GMM       0.043700
    130 HBJ          1.8770     4.7410     8.2620 ha         1 GMM       0.166000
    131 HBK          3.5830     3.0350     8.3650 ha         1 GMM       0.164000
    132 HBL1         3.2480     0.9930     7.0310 hc         1 GMM       0.043700
    133 HBL2         1.5040     1.1160     7.1250 hc         1 GMM       0.043700
    134 HBM1         3.3650     0.5550     9.4940 hc         1 GMM       0.039200
    135 HBM2         1.6120     0.7110     9.6100 hc         1 GMM       0.039200
    136 HBN1         1.3200    -1.2630     8.1000 hc         1 GMM       0.036700
    137 HBN2         3.0700    -1.4080     7.9320 hc         1 GMM       0.036700
    138 HBO1         3.2790    -1.8430    10.3920 hc         1 GMM       0.037700
    139 HBO2         1.5310    -1.6930    10.5730 hc         1 GMM       0.037700
    140 HBP1         2.9320    -3.8020     8.8370 hc         1 GMM       0.036200
    141 HBP2         1.1890    -3.6650     9.0740 hc         1 GMM       0.036200
    142 HBQ1         1.4980    -4.0890    11.5320 hc         1 GMM       0.038200
    143 HBQ2         3.2390    -4.2420    11.2870 hc         1 GMM       0.038200
    144 HBR1         1.0890    -6.0780    10.0800 hc         1 GMM       0.036700
    145 HBR2         2.7990    -6.1790     9.7020 hc         1 GMM       0.036700
    146 HBS1         2.2330    -7.8830    11.3570 hc         1 GMM       0.037200
    147 HBS2         3.3690    -6.7300    12.0320 hc         1 GMM       0.037200
    148 HBT1         1.7100    -7.3340    13.7080 hc         1 GMM       0.036700
    149 HBT2         1.5450    -5.6300    13.3300 hc         1 GMM       0.036700
    150 HBU1        -0.2390    -7.8580    12.1880 hc         1 GMM       0.038200
    151 HBU2        -0.4460    -6.1320    11.8840 hc         1 GMM       0.038200
    152 HBV1        -0.6430    -7.4600    14.6400 hc         1 GMM       0.035700
    153 HBV2        -0.8550    -5.7380    14.3220 hc         1 GMM       0.035700
    154 HBW1        -2.8310    -6.2530    12.8580 hc         1 GMM       0.037700
    155 HBW2        -2.6150    -7.9750    13.1710 hc         1 GMM       0.037700
    156 HBX1        -3.0090    -7.5750    15.6230 hc         1 GMM       0.036700
    157 HBX2        -3.2380    -5.8560    15.3030 hc         1 GMM       0.036700
    158 HBY1        -4.9850    -8.1100    14.1670 hc         1 GMM       0.037700
    159 HBY2        -5.2160    -6.3910    13.8470 hc         1 GMM       0.037700
    160 HBZ1        -5.6130    -5.9870    16.2940 hc         1 GMM       0.036200
    161 HBZ2        -5.3760    -7.7050    16.6170 hc         1 GMM       0.036200
    162 HCA1        -7.5920    -6.5360    14.8440 hc         1 GMM       0.039200
    163 HCA2        -7.3540    -8.2530    15.1700 hc         1 GMM       0.039200
    164 HCB1        -7.7420    -7.8410    17.6190 hc         1 GMM       0.036200
    165 HCB2        -7.9810    -6.1240    17.2920 hc         1 GMM       0.036200
    166 HCC1        -9.9640    -6.6780    15.8480 hc         1 GMM       0.046700
    167 HCC2        -9.7200    -8.3930    16.1760 hc         1 GMM       0.046700
    168 HCD1       -10.3180    -6.2620    18.3020 hc         1 GMM       0.043700
    169 HCD2       -10.1090    -7.9790    18.6260 hc         1 GMM       0.043700
    170 HCE        -12.2910    -6.7810    16.8330 h1         1 GMM       0.075700
    171 HCF        -12.2550    -9.3670    18.0330 ho         1 GMM       0.457000
    172 HCG        -12.6330    -6.1200    19.1570 hc         1 GMM       0.082700
    173 HCH1       -14.6300    -6.5530    17.7750 hc         1 GMM       0.058200
    174 HCH2       -14.6350    -8.2430    18.2430 hc         1 GMM       0.058200
    175 HCI1       -15.1200    -7.6350    20.6110 hc         1 GMM       0.042700
    176 HCI2       -16.3420    -7.0640    19.4880 hc         1 GMM       0.042700
    177 HCJ1       -15.2860    -4.7600    19.5380 hc         1 GMM       0.040700
    178 HCJ2       -14.1440    -5.3370    20.7550 hc         1 GMM       0.040700
    179 HCK1       -17.1910    -5.3000    21.0860 hc         1 GMM       0.036700
    180 HCK2       -16.0450    -5.8790    22.2930 hc         1 GMM       0.036700
    181 HCL1       -16.1960    -3.0100    21.2070 hc         1 GMM       0.042200
    182 HCL2       -15.0140    -3.5700    22.3880 hc         1 GMM       0.042200
    183 HCM1       -16.8840    -4.1360    23.9800 hc         1 GMM       0.031700
    184 HCM2       -18.0580    -3.5590    22.7960 hc         1 GMM       0.031700
    185 HCN1       -17.0430    -1.2610    22.9110 hc         1 GMM       0.038700
    186 HCN2       -15.8680    -1.8390    24.0930 hc         1 GMM       0.038700
    187 HCO1       -17.7430    -0.6520    25.2230 hc         1 GMM       0.030367
    188 HCO2       -18.9180    -1.7800    24.5110 hc         1 GMM       0.030367
    189 HCO3       -17.7310    -2.3630    25.7030 hc         1 GMM       0.030367
    190 HCT1       -10.8860    -8.8810    22.0520 h1         1 GMM       0.073700
    191 HCT2       -10.8050    -7.3290    22.8800 h1         1 GMM       0.073700
    192 HCU        -13.3520    -9.0320    22.5330 h1         1 GMM       0.092700
    193 HCW        -11.9390    -5.8650    23.9270 h2         1 GMM       0.069700
    194 HCX        -14.5050    -5.5180    23.8820 ho         1 GMM       0.517000
    195 HCY        -13.5080    -7.2800    26.1800 h1         1 GMM       0.078700
    196 HCZ        -11.4080    -6.6780    27.3270 ho         1 GMM       0.509000
    197 HDA        -10.7210    -7.9090    25.0790 h1         1 GMM       0.083700
    198 HDB        -12.3250    -9.2280    27.0920 ho         1 GMM       0.503000
    199 HDC        -13.3290    -9.5070    24.8880 h1         1 GMM       0.041700
    200 HDD        -11.1370   -10.5600    25.0520 ho         1 GMM       0.513000
@<TRIPOS>BOND
     1     1     2 1   
     2     1    75 1   
     3     1    76 1   
     4     1    77 1   
     5     2     3 1   
     6     2    78 1   
     7     2    79 1   
     8     3     4 1   
     9     3    80 1   
    10     3    81 1   
    11     4     5 1   
    12     4    82 1   
    13     4    83 1   
    14     5     6 1   
    15     5    84 1   
    16     5    85 1   
    17     6     7 1   
    18     6    86 1   
    19     6    87 1   
    20     7     8 1   
    21     7    88 1   
    22     7    89 1   
    23     8     9 1   
    24     8    90 1   
    25     8    91 1   
    26     9    10 1   
    27     9    92 1   
    28     9    93 1   
    29    10    11 1   
    30    10    94 1   
    31    10    95 1   
    32    11    12 1   
    33    11    96 1   
    34    11    97 1   
    35    12    13 1   
    36    12    98 1   
    37    12    99 1   
    38    13    14 1   
    39    13   100 1   
    40    13   101 1   
    41    14    15 1   
    42    14   102 1   
    43    14   103 1   
    44    15    16 1   
    45    15   104 1   
    46    15   105 1   
    47    16    17 1   
    48    16   106 1   
    49    16   107 1   
    50    17    18 1   
    51    17   108 1   
    52    17   109 1   
    53    18    19 1   
    54    18   110 1   
    55    18   111 1   
    56    19    20 2   
    57    19   112 1   
    58    20    21 1   
    59    20   113 1   
    60    21    22 1   
    61    21   114 1   
    62    21   115 1   
    63    22    23 1   
    64    22   116 1   
    65    22   117 1   
    66    23    24 1   
    67    23   118 1   
    68    23   119 1   
    69    24    25 1   
    70    24   120 1   
    71    24   121 1   
    72    25    26 1   
    73    25   122 1   
    74    25   123 1   
    75    26    27 1   
    76    26   124 1   
    77    26   125 1   
    78    27    28 1   
    79    27   126 1   
    80    27   127 1   
    81    28    29 1   
    82    28   128 1   
    83    28   129 1   
    84    29    30 2   
    85    29   130 1   
    86    30    31 1   
    87    30   131 1   
    88    31    32 1   
    89    31   132 1   
    90    31   133 1   
    91    32    33 1   
    92    32   134 1   
    93    32   135 1   
    94    33    34 1   
    95    33   136 1   
    96    33   137 1   
    97    34    35 1   
    98    34   138 1   
    99    34   139 1   
   100    35    36 1   
   101    35   140 1   
   102    35   141 1   
   103    36    37 1   
   104    36   142 1   
   105    36   143 1   
   106    37    38 1   
   107    37   144 1   
   108    37   145 1   
   109    38    39 1   
   110    38   146 1   
   111    38   147 1   
   112    39    40 1   
   113    39   148 1   
   114    39   149 1   
   115    40    41 1   
   116    40   150 1   
   117    40   151 1   
   118    41    42 1   
   119    41   152 1   
   120    41   153 1   
   121    42    43 1   
   122    42   154 1   
   123    42   155 1   
   124    43    44 1   
   125    43   156 1   
   126    43   157 1   
   127    44    45 1   
   128    44   158 1   
   129    44   159 1   
   130    45    46 1   
   131    45   160 1   
   132    45   161 1   
   133    46    47 1   
   134    46   162 1   
   135    46   163 1   
   136    47    48 1   
   137    47   164 1   
   138    47   165 1   
   139    48    49 1   
   140    48   166 1   
   141    48   167 1   
   142    49    50 1   
   143    49   168 1   
   144    49   169 1   
   145    50    51 1   
   146    50    52 1   
   147    50   170 1   
   148    51   171 1   
   149    52    53 1   
   150    52    61 1   
   151    52   172 1   
   152    53    54 1   
   153    53   173 1   
   154    53   174 1   
   155    54    55 1   
   156    54   175 1   
   157    54   176 1   
   158    55    56 1   
   159    55   177 1   
   160    55   178 1   
   161    56    57 1   
   162    56   179 1   
   163    56   180 1   
   164    57    58 1   
   165    57   181 1   
   166    57   182 1   
   167    58    59 1   
   168    58   183 1   
   169    58   184 1   
   170    59    60 1   
   171    59   185 1   
   172    59   186 1   
   173    60   187 1   
   174    60   188 1   
   175    60   189 1   
   176    61    62 2   
   177    61    63 1   
   178    63    64 1   
   179    64    65 1   
   180    64   190 1   
   181    64   191 1   
   182    65    66 1   
   183    65    73 1   
   184    65   192 1   
   185    66    67 1   
   186    67    68 1   
   187    67    69 1   
   188    67   193 1   
   189    68   194 1   
   190    69    70 1   
   191    69    71 1   
   192    69   195 1   
   193    70   196 1   
   194    71    72 1   
   195    71    73 1   
   196    71   197 1   
   197    72   198 1   
   198    73    74 1   
   199    73   199 1   
   200    74   200 1   
@<TRIPOS>SUBSTRUCTURE
     1 GMM         1 TEMP              0 ****  ****    0 ROOT
