@<TRIPOS>MOLECULE
GMN
   96    96     1     0     0
SMALL
bcc


@<TRIPOS>ATOM
      1 O2          -1.3490    -3.9080     7.4010 os         1 GMN      -0.333400
      2 C20         -0.0210    -4.6550     3.5560 ca         1 GMN      -0.211500
      3 C21         -0.7240    -3.4970     3.8740 ca         1 GMN       0.154100
      4 C22         -1.1450    -3.2710     5.1850 ca         1 GMN       0.020100
      5 C23         -0.8910    -4.2230     6.1740 ca         1 GMN       0.154100
      6 C24         -0.1950    -5.3860     5.8580 ca         1 GMN      -0.211500
      7 C19          0.2320    -5.5830     4.5540 ca         1 GMN      -0.022000
      8 O3          -1.0410    -2.5270     2.9910 os         1 GMN      -0.333400
      9 C1          -3.1750    -2.1280     5.5110 c3         1 GMN       0.116400
     10 C2          -3.7250    -0.7410     5.7520 c3         1 GMN       0.123800
     11 C4          -2.2110     0.6760     4.4060 c3         1 GMN       0.126467
     12 C5          -2.0010     1.8120     3.4250 c3         1 GMN      -0.124767
     13 C6          -4.1850    -0.3250     3.3410 c3         1 GMN       0.126467
     14 C7          -5.6000    -0.8600     3.4030 c3         1 GMN      -0.124767
     15 C8          -4.4970     1.4510     5.0020 c3         1 GMN       0.126467
     16 C9          -4.0170     2.2340     6.2050 c3         1 GMN      -0.124767
     17 C10         -1.0380    -4.7630     8.4800 c3         1 GMN       0.128400
     18 C11         -1.7370    -4.1240     9.6720 c3         1 GMN       0.112300
     19 C13         -1.6460    -6.1550    11.0350 c3         1 GMN       0.129967
     20 C14         -1.4310    -6.8310    12.3720 c3         1 GMN      -0.126433
     21 C15          0.1390    -4.4860    11.2690 c3         1 GMN       0.129967
     22 C16          0.6670    -3.0840    11.0520 c3         1 GMN      -0.126433
     23 C17         -2.1150    -3.9360    12.0700 c3         1 GMN       0.129967
     24 C18         -3.6120    -4.1660    12.0660 c3         1 GMN      -0.126433
     25 C25         -0.4290    -2.5370     1.7200 c3         1 GMN       0.128400
     26 C26         -0.9620    -1.2770     1.0520 c3         1 GMN       0.112300
     27 C28         -0.2260    -2.0070    -1.1990 c3         1 GMN       0.129967
     28 C29         -1.5750    -2.5340    -1.6300 c3         1 GMN      -0.126433
     29 C30         -1.0490     0.3000    -0.7580 c3         1 GMN       0.129967
     30 C31         -0.4970     0.9110    -2.0240 c3         1 GMN      -0.126433
     31 C32          1.1700    -0.4780     0.0650 c3         1 GMN       0.129967
     32 C33          1.3670     0.6650     1.0340 c3         1 GMN      -0.126433
     33 N3          -3.6480     0.2590     4.6240 n4         1 GMN      -0.616800
     34 N12         -1.3380    -4.6770    11.0040 n4         1 GMN      -0.620300
     35 N27         -0.2650    -0.8700    -0.2060 n4         1 GMN      -0.620300
     36 H20          0.3280    -4.8460     2.5500 ha         1 GMN       0.156500
     37 H24          0.0210    -6.1370     6.6050 ha         1 GMN       0.156500
     38 H19          0.7760    -6.4840     4.3080 ha         1 GMN       0.170000
     39 H11         -3.5440    -2.7310     6.3470 h1         1 GMN       0.065700
     40 H12         -3.5670    -2.5850     4.5980 h1         1 GMN       0.065700
     41 H21         -3.2250    -0.2990     6.6110 hx         1 GMN       0.103700
     42 H22         -4.7780    -0.8440     6.0110 hx         1 GMN       0.103700
     43 H41         -1.8060     0.9430     5.3800 hx         1 GMN       0.092867
     44 H42         -1.6790    -0.2110     4.0790 hx         1 GMN       0.092867
     45 H51         -0.9260     1.9770     3.3600 hc         1 GMN       0.073922
     46 H52         -2.3580     1.5980     2.4180 hc         1 GMN       0.073922
     47 H53         -2.4450     2.7520     3.7480 hc         1 GMN       0.073922
     48 H61         -4.1230     0.4630     2.5940 hx         1 GMN       0.092867
     49 H62         -3.4990    -1.1150     3.0390 hx         1 GMN       0.092867
     50 H71         -5.8280    -1.2620     2.4170 hc         1 GMN       0.073922
     51 H72         -5.7230    -1.6730     4.1170 hc         1 GMN       0.073922
     52 H73         -6.3390    -0.0900     3.6140 hc         1 GMN       0.073922
     53 H81         -4.5470     2.0910     4.1230 hx         1 GMN       0.092867
     54 H82         -5.4990     1.0710     5.1860 hx         1 GMN       0.092867
     55 H91         -4.7150     3.0580     6.3450 hc         1 GMN       0.073922
     56 H92         -4.0210     1.6520     7.1240 hc         1 GMN       0.073922
     57 H93         -3.0290     2.6680     6.0690 hc         1 GMN       0.073922
     58 H101         0.0470    -4.8260     8.6150 h1         1 GMN       0.066950
     59 H102        -1.4160    -5.7720     8.2980 h1         1 GMN       0.066950
     60 H111        -2.8120    -4.2610     9.5730 hx         1 GMN       0.095700
     61 H112        -1.5380    -3.0530     9.6890 hx         1 GMN       0.095700
     62 H131        -2.6750    -6.2720    10.7000 hx         1 GMN       0.093450
     63 H132        -1.0030    -6.6210    10.2900 hx         1 GMN       0.093450
     64 H141        -1.7040    -7.8780    12.2460 hc         1 GMN       0.077978
     65 H142        -0.3930    -6.8080    12.6970 hc         1 GMN       0.077978
     66 H143        -2.0580    -6.4290    13.1660 hc         1 GMN       0.077978
     67 H151         0.3020    -4.7870    12.3000 hx         1 GMN       0.093450
     68 H152         0.6720    -5.1960    10.6380 hx         1 GMN       0.093450
     69 H161         1.7180    -3.0950    11.3370 hc         1 GMN       0.077978
     70 H162         0.6200    -2.7620    10.0140 hc         1 GMN       0.077978
     71 H163         0.1730    -2.3400    11.6740 hc         1 GMN       0.077978
     72 H171        -1.6880    -4.2270    13.0270 hx         1 GMN       0.093450
     73 H172        -1.9030    -2.8780    11.9260 hx         1 GMN       0.093450
     74 H181        -4.0240    -3.5690    12.8780 hc         1 GMN       0.077978
     75 H182        -4.0970    -3.8370    11.1490 hc         1 GMN       0.077978
     76 H183        -3.8860    -5.2020    12.2570 hc         1 GMN       0.077978
     77 H251        -0.7110    -3.4310     1.1560 h1         1 GMN       0.066950
     78 H252         0.6600    -2.5250     1.8230 h1         1 GMN       0.066950
     79 H261        -0.8770    -0.4420     1.7440 hx         1 GMN       0.095700
     80 H262        -2.0190    -1.4020     0.8170 hx         1 GMN       0.095700
     81 H281         0.3360    -1.6450    -2.0580 hx         1 GMN       0.093450
     82 H282         0.3740    -2.7970    -0.7490 hx         1 GMN       0.093450
     83 H291        -1.3920    -3.3560    -2.3200 hc         1 GMN       0.077978
     84 H292        -2.1650    -2.9330    -0.8060 hc         1 GMN       0.077978
     85 H293        -2.1710    -1.7950    -2.1620 hc         1 GMN       0.077978
     86 H301        -2.0630    -0.0590    -0.9210 hx         1 GMN       0.093450
     87 H302        -1.1010     1.0450     0.0340 hx         1 GMN       0.093450
     88 H311        -1.1620     1.7280    -2.2990 hc         1 GMN       0.077978
     89 H312         0.4970     1.3370    -1.8980 hc         1 GMN       0.077978
     90 H313        -0.4800     0.2160    -2.8620 hc         1 GMN       0.077978
     91 H321         1.6800    -1.3720     0.4200 hx         1 GMN       0.093450
     92 H322         1.6070    -0.2400    -0.9020 hx         1 GMN       0.093450
     93 H331         2.4400     0.8440     1.0970 hc         1 GMN       0.077978
     94 H332         0.9100     1.5960     0.7070 hc         1 GMN       0.077978
     95 H333         1.0290     0.4380     2.0440 hc         1 GMN       0.077978
     96 O1          -1.7570    -2.0980     5.5040 os         1 GMN      -0.328900
@<TRIPOS>BOND
     1     1     5 1   
     2     1    17 1   
     3     2     3 ar  
     4     2     7 ar  
     5     2    36 1   
     6     3     4 ar  
     7     3     8 1   
     8     4     5 ar  
     9     4    96 1   
    10     5     6 ar  
    11     6     7 ar  
    12     6    37 1   
    13     7    38 1   
    14     8    25 1   
    15     9    10 1   
    16     9    39 1   
    17     9    40 1   
    18     9    96 1   
    19    10    33 1   
    20    10    41 1   
    21    10    42 1   
    22    11    12 1   
    23    11    33 1   
    24    11    43 1   
    25    11    44 1   
    26    12    45 1   
    27    12    46 1   
    28    12    47 1   
    29    13    14 1   
    30    13    33 1   
    31    13    48 1   
    32    13    49 1   
    33    14    50 1   
    34    14    51 1   
    35    14    52 1   
    36    15    16 1   
    37    15    33 1   
    38    15    53 1   
    39    15    54 1   
    40    16    55 1   
    41    16    56 1   
    42    16    57 1   
    43    17    18 1   
    44    17    58 1   
    45    17    59 1   
    46    18    34 1   
    47    18    60 1   
    48    18    61 1   
    49    19    20 1   
    50    19    34 1   
    51    19    62 1   
    52    19    63 1   
    53    20    64 1   
    54    20    65 1   
    55    20    66 1   
    56    21    22 1   
    57    21    34 1   
    58    21    67 1   
    59    21    68 1   
    60    22    69 1   
    61    22    70 1   
    62    22    71 1   
    63    23    24 1   
    64    23    34 1   
    65    23    72 1   
    66    23    73 1   
    67    24    74 1   
    68    24    75 1   
    69    24    76 1   
    70    25    26 1   
    71    25    77 1   
    72    25    78 1   
    73    26    35 1   
    74    26    79 1   
    75    26    80 1   
    76    27    28 1   
    77    27    35 1   
    78    27    81 1   
    79    27    82 1   
    80    28    83 1   
    81    28    84 1   
    82    28    85 1   
    83    29    30 1   
    84    29    35 1   
    85    29    86 1   
    86    29    87 1   
    87    30    88 1   
    88    30    89 1   
    89    30    90 1   
    90    31    32 1   
    91    31    35 1   
    92    31    91 1   
    93    31    92 1   
    94    32    93 1   
    95    32    94 1   
    96    32    95 1   
@<TRIPOS>SUBSTRUCTURE
     1 GMN         1 TEMP              0 ****  ****    0 ROOT
