@<TRIPOS>MOLECULE
GMN
   96    96     1     0     0
SMALL
No Charge or Current Charge


@<TRIPOS>ATOM
      1 O2          -0.9510    -3.6570     7.6760 os         1 GMN      -0.356600
      2 C20          0.8370    -3.9900     3.8800 ca         1 GMN      -0.193500
      3 C21         -0.0220    -2.9090     4.1690 ca         1 GMN       0.154100
      4 C22         -0.6210    -2.8100     5.4430 ca         1 GMN       0.020100
      5 C23         -0.3590    -3.7880     6.4320 ca         1 GMN       0.154100
      6 C24          0.5060    -4.8630     6.1300 ca         1 GMN      -0.193500
      7 C19          1.0990    -4.9610     4.8600 ca         1 GMN      -0.004000
      8 O3          -0.3240    -1.9400     3.2300 os         1 GMN      -0.356600
      9 C1          -2.8750    -2.0030     5.8720 c3         1 GMN       0.139600
     10 C2          -3.6420    -0.6620     5.7670 c3         1 GMN       0.095600
     11 C4          -2.1850     0.7770     4.2830 c3         1 GMN       0.098267
     12 C5          -1.9650     1.7670     3.1210 c3         1 GMN      -0.124767
     13 C6          -3.8720    -0.7530     3.2340 c3         1 GMN       0.098267
     14 C7          -5.2310    -1.4770     3.1810 c3         1 GMN      -0.124767
     15 C8          -4.6550     1.2720     4.5100 c3         1 GMN       0.098267
     16 C9          -4.5400     2.3030     5.6510 c3         1 GMN      -0.124767
     17 C10         -0.7370    -4.5990     8.7390 c3         1 GMN       0.151600
     18 C11         -1.5580    -4.1120     9.9500 c3         1 GMN       0.084100
     19 C13         -2.0760    -6.3490    10.9810 c3         1 GMN       0.101767
     20 C14         -2.1640    -7.3290    12.1680 c3         1 GMN      -0.126433
     21 C15         -0.0530    -5.0700    11.7530 c3         1 GMN       0.101767
     22 C16          0.7290    -3.7700    12.0250 c3         1 GMN      -0.126433
     23 C17         -2.3470    -4.2270    12.3370 c3         1 GMN       0.101767
     24 C18         -3.8520    -4.0330    12.0620 c3         1 GMN      -0.126433
     25 C25          0.0610    -2.0460     1.8520 c3         1 GMN       0.151600
     26 C26         -0.5170    -0.8050     1.1470 c3         1 GMN       0.084100
     27 C28         -1.1550    -1.8800    -1.0520 c3         1 GMN       0.101767
     28 C29         -2.6550    -2.0400    -0.7350 c3         1 GMN      -0.126433
     29 C30         -1.0340     0.6380    -0.8260 c3         1 GMN       0.101767
     30 C31         -1.0420     0.9640    -2.3320 c3         1 GMN      -0.126433
     31 C32          1.0720    -0.7680    -0.8210 c3         1 GMN       0.101767
     32 C33          2.0210     0.3150    -0.2740 c3         1 GMN      -0.126433
     33 N3          -3.5890     0.1580     4.4460 n4         1 GMN      -0.504000
     34 N12         -1.5080    -4.9410    11.2560 n4         1 GMN      -0.507500
     35 N27         -0.4080    -0.7030    -0.3890 n4         1 GMN      -0.507500
     36 H20          1.3100    -4.0920     2.9080 ha         1 GMN       0.138500
     37 H24          0.7320    -5.6310     6.8630 ha         1 GMN       0.138500
     38 H19          1.7650    -5.7930     4.6340 ha         1 GMN       0.152000
     39 H11         -3.0690    -2.4540     6.8520 h1         1 GMN       0.065700
     40 H12         -3.2430    -2.6940     5.1040 h1         1 GMN       0.065700
     41 H21         -3.2900    -0.0100     6.5690 hx         1 GMN       0.103700
     42 H22         -4.6940    -0.8780     5.9620 hx         1 GMN       0.103700
     43 H41         -1.9410     1.2840     5.2190 hx         1 GMN       0.092867
     44 H42         -1.4790    -0.0480     4.1660 hx         1 GMN       0.092867
     45 H51         -0.9100     2.0640     3.0770 hc         1 GMN       0.073922
     46 H52         -2.2350     1.3210     2.1590 hc         1 GMN       0.073922
     47 H53         -2.5620     2.6750     3.2590 hc         1 GMN       0.073922
     48 H61         -3.7830    -0.1380     2.3360 hx         1 GMN       0.092867
     49 H62         -3.0760    -1.5020     3.2020 hx         1 GMN       0.092867
     50 H71         -5.2810    -2.1140     2.2900 hc         1 GMN       0.073922
     51 H72         -5.3790    -2.1130     4.0610 hc         1 GMN       0.073922
     52 H73         -6.0570    -0.7590     3.1280 hc         1 GMN       0.073922
     53 H81         -4.6290     1.8040     3.5560 hx         1 GMN       0.092867
     54 H82         -5.6300     0.7870     4.5890 hx         1 GMN       0.092867
     55 H91         -5.3440     3.0430     5.5680 hc         1 GMN       0.073922
     56 H92         -4.6260     1.8190     6.6300 hc         1 GMN       0.073922
     57 H93         -3.5840     2.8360     5.6080 hc         1 GMN       0.073922
     58 H101         0.3260    -4.6460     9.0080 h1         1 GMN       0.066950
     59 H102        -1.0740    -5.6010     8.4440 h1         1 GMN       0.066950
     60 H111        -2.6020    -4.0530     9.6400 hx         1 GMN       0.095700
     61 H112        -1.2300    -3.1000    10.1930 hx         1 GMN       0.095700
     62 H131        -3.0780    -6.2220    10.5640 hx         1 GMN       0.093450
     63 H132        -1.4550    -6.8080    10.2080 hx         1 GMN       0.093450
     64 H141        -2.5880    -8.2830    11.8340 hc         1 GMN       0.077978
     65 H142        -1.1720    -7.5300    12.5880 hc         1 GMN       0.077978
     66 H143        -2.8070    -6.9340    12.9610 hc         1 GMN       0.077978
     67 H151        -0.0750    -5.6520    12.6770 hx         1 GMN       0.093450
     68 H152         0.4960    -5.6550    11.0110 hx         1 GMN       0.093450
     69 H161         1.7420    -4.0080    12.3690 hc         1 GMN       0.077978
     70 H162         0.8160    -3.1610    11.1180 hc         1 GMN       0.077978
     71 H163         0.2420    -3.1720    12.8030 hc         1 GMN       0.077978
     72 H171        -2.2350    -4.7930    13.2640 hx         1 GMN       0.093450
     73 H172        -1.9020    -3.2420    12.4980 hx         1 GMN       0.093450
     74 H181        -4.3230    -3.5210    12.9090 hc         1 GMN       0.077978
     75 H182        -4.0150    -3.4230    11.1670 hc         1 GMN       0.077978
     76 H183        -4.3570    -4.9960    11.9280 hc         1 GMN       0.077978
     77 H251        -0.3540    -2.9570     1.4040 h1         1 GMN       0.066950
     78 H252         1.1530    -2.0590     1.7440 h1         1 GMN       0.066950
     79 H261        -0.0340     0.0770     1.5710 hx         1 GMN       0.095700
     80 H262        -1.5770    -0.7470     1.3970 hx         1 GMN       0.095700
     81 H281        -1.0400    -1.7700    -2.1330 hx         1 GMN       0.093450
     82 H282        -0.6410    -2.8000    -0.7630 hx         1 GMN       0.093450
     83 H291        -3.0630    -2.8980    -1.2830 hc         1 GMN       0.077978
     84 H292        -2.8180    -2.2160     0.3340 hc         1 GMN       0.077978
     85 H293        -3.2200    -1.1500    -1.0340 hc         1 GMN       0.077978
     86 H301        -2.0650     0.6500    -0.4650 hx         1 GMN       0.093450
     87 H302        -0.4970     1.4330    -0.3040 hx         1 GMN       0.093450
     88 H311        -1.5100     1.9410    -2.5000 hc         1 GMN       0.077978
     89 H312        -0.0240     1.0030    -2.7330 hc         1 GMN       0.077978
     90 H313        -1.6120     0.2160    -2.8940 hc         1 GMN       0.077978
     91 H321         1.4570    -1.7470    -0.5250 hx         1 GMN       0.093450
     92 H322         1.0940    -0.7270    -1.9120 hx         1 GMN       0.093450
     93 H331         3.0350     0.1520    -0.6560 hc         1 GMN       0.077978
     94 H332         1.7000     1.3150    -0.5860 hc         1 GMN       0.077978
     95 H333         2.0650     0.2880     0.8210 hc         1 GMN       0.077978
     96 O1          -1.4720    -1.7530     5.6930 os         1 GMN      -0.352100
@<TRIPOS>BOND
     1     1     5 1   
     2     1    17 1   
     3     2     3 ar  
     4     2     7 ar  
     5     2    36 1   
     6     3     4 ar  
     7     3     8 1   
     8     4     5 ar  
     9     4    96 1   
    10     5     6 ar  
    11     6     7 ar  
    12     6    37 1   
    13     7    38 1   
    14     8    25 1   
    15     9    10 1   
    16     9    39 1   
    17     9    40 1   
    18     9    96 1   
    19    10    33 1   
    20    10    41 1   
    21    10    42 1   
    22    11    12 1   
    23    11    33 1   
    24    11    43 1   
    25    11    44 1   
    26    12    45 1   
    27    12    46 1   
    28    12    47 1   
    29    13    14 1   
    30    13    33 1   
    31    13    48 1   
    32    13    49 1   
    33    14    50 1   
    34    14    51 1   
    35    14    52 1   
    36    15    16 1   
    37    15    33 1   
    38    15    53 1   
    39    15    54 1   
    40    16    55 1   
    41    16    56 1   
    42    16    57 1   
    43    17    18 1   
    44    17    58 1   
    45    17    59 1   
    46    18    34 1   
    47    18    60 1   
    48    18    61 1   
    49    19    20 1   
    50    19    34 1   
    51    19    62 1   
    52    19    63 1   
    53    20    64 1   
    54    20    65 1   
    55    20    66 1   
    56    21    22 1   
    57    21    34 1   
    58    21    67 1   
    59    21    68 1   
    60    22    69 1   
    61    22    70 1   
    62    22    71 1   
    63    23    24 1   
    64    23    34 1   
    65    23    72 1   
    66    23    73 1   
    67    24    74 1   
    68    24    75 1   
    69    24    76 1   
    70    25    26 1   
    71    25    77 1   
    72    25    78 1   
    73    26    35 1   
    74    26    79 1   
    75    26    80 1   
    76    27    28 1   
    77    27    35 1   
    78    27    81 1   
    79    27    82 1   
    80    28    83 1   
    81    28    84 1   
    82    28    85 1   
    83    29    30 1   
    84    29    35 1   
    85    29    86 1   
    86    29    87 1   
    87    30    88 1   
    88    30    89 1   
    89    30    90 1   
    90    31    32 1   
    91    31    35 1   
    92    31    91 1   
    93    31    92 1   
    94    32    93 1   
    95    32    94 1   
    96    32    95 1   
@<TRIPOS>SUBSTRUCTURE
     1 GMN         1 TEMP              0 ****  ****    0 ROOT
