@<TRIPOS>MOLECULE
GMO
   40    41     1     0     0
SMALL
bcc


@<TRIPOS>ATOM
      1 N           -1.4940     2.7100     1.1470 n8         1 GMO      -0.902800
      2 CA          -2.3590     1.8930     0.3220 c3         1 GMO       0.102200
      3 C           -4.3690    -0.9440     0.9520 c          1 GMO       0.918600
      4 O           -3.5000    -0.9220     1.8390 o          1 GMO      -0.817800
      5 CB1         -2.7320     2.6630    -0.9690 c3         1 GMO       0.157100
      6 CG1         -3.6440     3.8370    -0.6570 c3         1 GMO      -0.122100
      7 OG1         -1.5670     3.0610    -1.6510 oh         1 GMO      -0.598800
      8 CG2          2.2220    -1.2030    -0.2840 ca         1 GMO       0.030200
      9 CD1          2.5490     0.0410     0.2760 ca         1 GMO      -0.135000
     10 CD2          3.2590    -2.1010    -0.5660 ca         1 GMO      -0.135000
     11 CE1          3.8620     0.3690     0.5440 ca         1 GMO      -0.071000
     12 CE2          4.5770    -1.7840    -0.3060 ca         1 GMO      -0.071000
     13 CZ           4.8660    -0.5450     0.2500 ca         1 GMO      -0.199200
     14 C1          -1.7390     0.5800    -0.0460 cc         1 GMO       0.514900
     15 C2          -1.6090    -1.5020    -0.8080 c          1 GMO       0.677700
     16 CA2         -0.2800    -0.9330    -0.4430 cd         1 GMO       0.086400
     17 N2          -0.4700     0.3510     0.0300 nd         1 GMO      -0.690300
     18 N3          -2.4710    -0.4550    -0.5820 n          1 GMO      -0.364300
     19 NO           6.2480    -0.1980     0.5290 no         1 GMO       0.318200
     20 O2          -1.9020    -2.6080    -1.2040 o          1 GMO      -0.572500
     21 O40          7.1060    -0.9990     0.2400 o          1 GMO      -0.228000
     22 ON1          6.4730     0.8760     1.0380 o          1 GMO      -0.228000
     23 H1          -1.6130     2.4650     2.1200 hn         1 GMO       0.359800
     24 H2          -0.5250     2.5110     0.9270 hn         1 GMO       0.359800
     25 H4          -3.2840     1.6950     0.8700 h1         1 GMO       0.109700
     26 H8          -3.2570     1.9870    -1.6520 h1         1 GMO       0.077700
     27 H9           0.7640    -2.6240    -0.9900 ha         1 GMO       0.141000
     28 H11         -3.1670     4.5270     0.0400 hc         1 GMO       0.042367
     29 H12         -3.8900     4.3810    -1.5700 hc         1 GMO       0.042367
     30 H13         -4.5790     3.4990    -0.2080 hc         1 GMO       0.042367
     31 H14         -1.1130     3.7070    -1.0970 ho         1 GMO       0.407000
     32 H15          1.7690     0.7530     0.5010 ha         1 GMO       0.160500
     33 H16          3.0260    -3.0650    -0.9990 ha         1 GMO       0.160500
     34 H17          4.0950     1.3310     0.9770 ha         1 GMO       0.159500
     35 H18          5.3580    -2.4940    -0.5350 ha         1 GMO       0.159500
     36 H20         -4.1940    -1.4160    -1.1680 h1         1 GMO       0.051200
     37 H21         -4.4030     0.2840    -0.8460 h1         1 GMO       0.051200
     38 O1          -5.5830    -1.1850     1.0600 o          1 GMO      -0.817800
     39 CA3         -3.9010    -0.6170    -0.4870 c3         1 GMO      -0.068000
     40 CB2          0.8660    -1.6210    -0.5890 ce         1 GMO      -0.109200
@<TRIPOS>BOND
     1     1     2 1   
     2     1    23 1   
     3     1    24 1   
     4     2     5 1   
     5     2    14 1   
     6     2    25 1   
     7     3     4 1   
     8     3    38 1   
     9     3    39 1   
    10     5     6 1   
    11     5     7 1   
    12     5    26 1   
    13     6    28 1   
    14     6    29 1   
    15     6    30 1   
    16     7    31 1   
    17     8     9 ar  
    18     8    10 ar  
    19     8    40 1   
    20     9    11 ar  
    21     9    32 1   
    22    10    12 ar  
    23    10    33 1   
    24    11    13 ar  
    25    11    34 1   
    26    12    13 ar  
    27    12    35 1   
    28    13    19 1   
    29    14    17 2   
    30    14    18 1   
    31    15    16 1   
    32    15    18 1   
    33    15    20 2   
    34    16    17 1   
    35    16    40 2   
    36    18    39 1   
    37    19    21 1   
    38    19    22 1   
    39    27    40 1   
    40    36    39 1   
    41    37    39 1   
@<TRIPOS>SUBSTRUCTURE
     1 GMO         1 TEMP              0 ****  ****    0 ROOT
