@<TRIPOS>MOLECULE
GMO
   40    41     1     0     0
SMALL
No Charge or Current Charge


@<TRIPOS>ATOM
      1 N           -1.3290     2.9250     0.9950 n8         1 GMO      -0.902800
      2 CA          -2.2510     2.0330     0.1900 c3         1 GMO       0.102200
      3 C           -4.5980    -0.9390     0.9970 c          1 GMO       0.918600
      4 O           -4.2730    -0.3080     1.9950 o          1 GMO      -0.817800
      5 CB1         -2.7150     2.7440    -1.1200 c3         1 GMO       0.157100
      6 CG1         -3.8570     3.7540    -0.8770 c3         1 GMO      -0.122100
      7 OG1         -1.6090     3.4590    -1.6760 oh         1 GMO      -0.598800
      8 CG2          2.2640    -1.2870    -0.2300 ca         1 GMO       0.030200
      9 CD1          2.5980    -0.2980     0.7160 ca         1 GMO      -0.135000
     10 CD2          3.3010    -1.9410    -0.9210 ca         1 GMO      -0.135000
     11 CE1          3.9400     0.0460     0.9540 ca         1 GMO      -0.071000
     12 CE2          4.6460    -1.6040    -0.6900 ca         1 GMO      -0.071000
     13 CZ           4.9800    -0.6030     0.2500 ca         1 GMO      -0.199200
     14 C1          -1.6800     0.6360    -0.0940 cc         1 GMO       0.514900
     15 C2          -1.6770    -1.5730    -0.5580 c          1 GMO       0.677700
     16 CA2         -0.3320    -0.9810    -0.3910 cd         1 GMO       0.086400
     17 N2          -0.3620     0.3830    -0.1030 nd         1 GMO      -0.690300
     18 N3          -2.4720    -0.4710    -0.3630 n          1 GMO      -0.364300
     19 NO           6.4100    -0.2410     0.5010 no         1 GMO       0.318200
     20 O2          -2.0270    -2.7250    -0.7990 o          1 GMO      -0.572500
     21 O40          7.2820    -0.8380    -0.1360 o          1 GMO      -0.228000
     22 ON1          6.6510     0.6390     1.3320 o          1 GMO      -0.228000
     23 H1          -1.3600     2.6340     1.9790 hn         1 GMO       0.359800
     24 H2          -0.3640     2.6930     0.7270 hn         1 GMO       0.359800
     25 H4          -3.1540     1.8760     0.7960 h1         1 GMO       0.109700
     26 H8          -3.0800     1.9900    -1.8320 h1         1 GMO       0.077700
     27 H9           0.7300    -2.7300    -0.7900 ha         1 GMO       0.141000
     28 H11         -3.5520     4.5350    -0.1700 hc         1 GMO       0.042367
     29 H12         -4.1510     4.2360    -1.8170 hc         1 GMO       0.042367
     30 H13         -4.7390     3.2460    -0.4680 hc         1 GMO       0.042367
     31 H14         -1.1270     3.7920    -0.8850 ho         1 GMO       0.407000
     32 H15          1.8170     0.2030     1.2820 ha         1 GMO       0.160500
     33 H16          3.0630    -2.7140    -1.6490 ha         1 GMO       0.160500
     34 H17          4.1620     0.8160     1.6920 ha         1 GMO       0.159500
     35 H18          5.4220    -2.1280    -1.2470 ha         1 GMO       0.159500
     36 H20         -4.2910    -1.2670    -1.1140 h1         1 GMO       0.051200
     37 H21         -4.3860     0.4320    -0.6450 h1         1 GMO       0.051200
     38 O1          -5.3690    -1.8900     1.0290 o          1 GMO      -0.817800
     39 CA3         -3.9670    -0.5390    -0.3600 c3         1 GMO      -0.068000
     40 CB2          0.8510    -1.6880    -0.4960 ce         1 GMO      -0.109200
@<TRIPOS>BOND
     1     1     2 1   
     2     1    23 1   
     3     1    24 1   
     4     2     5 1   
     5     2    14 1   
     6     2    25 1   
     7     3     4 1   
     8     3    38 1   
     9     3    39 1   
    10     5     6 1   
    11     5     7 1   
    12     5    26 1   
    13     6    28 1   
    14     6    29 1   
    15     6    30 1   
    16     7    31 1   
    17     8     9 ar  
    18     8    10 ar  
    19     8    40 1   
    20     9    11 ar  
    21     9    32 1   
    22    10    12 ar  
    23    10    33 1   
    24    11    13 ar  
    25    11    34 1   
    26    12    13 ar  
    27    12    35 1   
    28    13    19 1   
    29    14    17 2   
    30    14    18 1   
    31    15    16 1   
    32    15    18 1   
    33    15    20 2   
    34    16    17 1   
    35    16    40 2   
    36    18    39 1   
    37    19    21 1   
    38    19    22 1   
    39    27    40 1   
    40    36    39 1   
    41    37    39 1   
@<TRIPOS>SUBSTRUCTURE
     1 GMO         1 TEMP              0 ****  ****    0 ROOT
