@<TRIPOS>MOLECULE
GMP
   33    35     1     0     0
SMALL
bcc


@<TRIPOS>ATOM
      1 O5           3.9260     2.1360     0.8690 oh         1 GMP      -0.573800
      2 C5           3.9360     1.1400    -0.1220 c3         1 GMP       0.125400
      3 C4           3.3640    -0.1340     0.4690 c5         1 GMP       0.105100
      4 O4           2.0440     0.0820     0.9790 os         1 GMP      -0.379600
      5 C3           3.2300    -1.2530    -0.5650 c5         1 GMP       0.076100
      6 O3           3.2340    -2.5280     0.0190 oh         1 GMP      -0.564800
      7 C2           1.8210    -0.9820    -1.0910 c5         1 GMP       0.112100
      8 O2           1.1580    -2.0490    -1.6890 oh         1 GMP      -0.549800
      9 C1           1.0950    -0.5780     0.1920 c5         1 GMP       0.258800
     10 N9          -0.0270     0.3010    -0.0330 na         1 GMP      -0.205900
     11 C8           0.0190     1.5970    -0.4840 cc         1 GMP       0.403400
     12 N7          -1.1550     2.1330    -0.6020 nd         1 GMP      -0.598000
     13 C7          -2.0270     1.1480    -0.2130 cd         1 GMP       0.150800
     14 C6          -3.4490     1.1490    -0.1320 c          1 GMP       0.665000
     15 O6          -4.2300     2.0460    -0.4050 o          1 GMP      -0.595500
     16 N1          -3.9170    -0.0880     0.3300 ns         1 GMP      -0.525400
     17 C10         -3.1470    -1.1640     0.6690 cd         1 GMP       0.735800
     18 N2          -3.7860    -2.2460     1.1340 nv         1 GMP      -0.935800
     19 N3          -1.8390    -1.1610     0.5870 nc         1 GMP      -0.700100
     20 C9          -1.3420     0.0020     0.1480 cc         1 GMP       0.147800
     21 HO5          4.3220     2.9300     0.4990 ho         1 GMP       0.408000
     22 H5'1         3.3610     1.4420    -1.0090 h1         1 GMP       0.019200
     23 H5'2         4.9530     0.9150    -0.4690 h1         1 GMP       0.019200
     24 H4           3.9990    -0.4470     1.3050 h1         1 GMP       0.085700
     25 H3           3.9880    -1.1650    -1.3540 h1         1 GMP       0.050700
     26 HO3          4.0900    -2.6670     0.4370 ho         1 GMP       0.408000
     27 H2           1.8750    -0.1130    -1.7620 h1         1 GMP       0.046700
     28 HO2          1.5240    -2.1870    -2.5680 ho         1 GMP       0.412000
     29 H1           0.6950    -1.4650     0.6950 h2         1 GMP       0.125700
     30 H8           0.9550     2.0950    -0.6920 h5         1 GMP       0.058100
     31 HN1         -4.9210    -0.1680     0.4240 hn         1 GMP       0.320500
     32 HN21        -4.7780    -2.3560     1.0110 hn         1 GMP       0.445800
     33 HN22        -3.2520    -3.0900     1.2510 hn         1 GMP       0.445800
@<TRIPOS>BOND
     1     1     2 1   
     2     1    21 1   
     3     2     3 1   
     4     2    22 1   
     5     2    23 1   
     6     3     4 1   
     7     3     5 1   
     8     3    24 1   
     9     4     9 1   
    10     5     6 1   
    11     5     7 1   
    12     5    25 1   
    13     6    26 1   
    14     7     8 1   
    15     7     9 1   
    16     7    27 1   
    17     8    28 1   
    18     9    10 1   
    19     9    29 1   
    20    10    11 1   
    21    10    20 1   
    22    11    12 2   
    23    11    30 1   
    24    12    13 1   
    25    13    14 1   
    26    13    20 2   
    27    14    15 2   
    28    14    16 1   
    29    16    17 1   
    30    16    31 1   
    31    17    18 1   
    32    17    19 2   
    33    18    32 1   
    34    18    33 1   
    35    19    20 1   
@<TRIPOS>SUBSTRUCTURE
     1 GMP         1 TEMP              0 ****  ****    0 ROOT
