@<TRIPOS>MOLECULE
GMP
   33    35     1     0     0
SMALL
No Charge or Current Charge


@<TRIPOS>ATOM
      1 O5           3.8150     1.9930     1.3920 oh         1 GMP      -0.696000
      2 C5           3.7120     1.1990     0.1980 c3         1 GMP       0.148600
      3 C4           3.2720    -0.2610     0.5280 c5         1 GMP       0.128300
      4 O4           1.8730    -0.2840     0.9230 os         1 GMP      -0.426000
      5 C3           3.3430    -1.2380    -0.6920 c5         1 GMP       0.099300
      6 O3           3.3020    -2.6280    -0.3120 oh         1 GMP      -0.687000
      7 C2           2.0380    -0.8310    -1.4300 c5         1 GMP       0.135300
      8 O2           1.6600    -1.8450    -2.3690 oh         1 GMP      -0.672000
      9 C1           1.0580    -0.6840    -0.2100 c5         1 GMP       0.311300
     10 N9          -0.0690     0.2370    -0.3580 na         1 GMP      -0.184500
     11 C8          -0.0610     1.4610    -0.9990 cc         1 GMP       0.403400
     12 N7          -1.2680     2.0200    -1.0010 nd         1 GMP      -0.598000
     13 C7          -2.0910     1.1100    -0.3480 cd         1 GMP       0.085500
     14 C6          -3.5500     1.1530    -0.0380 c          1 GMP       0.522500
     15 O6          -4.3130     2.0670    -0.3200 o          1 GMP      -0.520000
     16 N1          -3.9710     0.0320     0.6160 ns         1 GMP      -0.458400
     17 C10         -3.1550    -0.9900     0.9400 cd         1 GMP       0.735800
     18 N2          -3.6940    -2.0190     1.5660 nv         1 GMP      -1.046200
     19 N3          -1.8700    -1.0880     0.7000 nc         1 GMP      -0.700100
     20 C9          -1.3600     0.0130     0.0410 cc         1 GMP       0.162400
     21 HO5          4.0940     2.8980     1.1170 ho         1 GMP       0.507000
     22 H5'1         2.9980     1.6550    -0.5000 h1         1 GMP       0.019200
     23 H5'2         4.6870     1.1620    -0.3060 h1         1 GMP       0.019200
     24 H4           3.8890    -0.6220     1.3620 h1         1 GMP       0.085700
     25 H3           4.2290    -1.0390    -1.3120 h1         1 GMP       0.050700
     26 HO3          4.1420    -2.8340     0.1630 ho         1 GMP       0.507000
     27 H2           2.1710     0.1270    -1.9490 h1         1 GMP       0.046700
     28 HO2          2.0810    -2.6660    -2.0090 ho         1 GMP       0.511000
     29 H1           0.6190    -1.6650     0.0080 h2         1 GMP       0.125700
     30 H8           0.8370     1.8890    -1.4290 h5         1 GMP       0.058100
     31 HN1         -4.9430     0.0010     0.8760 hn         1 GMP       0.320500
     32 HN21        -4.6660    -2.2170     1.3640 hn         1 GMP       0.501000
     33 HN22        -3.0890    -2.8290     1.6160 hn         1 GMP       0.501000
@<TRIPOS>BOND
     1     1     2 1   
     2     1    21 1   
     3     2     3 1   
     4     2    22 1   
     5     2    23 1   
     6     3     4 1   
     7     3     5 1   
     8     3    24 1   
     9     4     9 1   
    10     5     6 1   
    11     5     7 1   
    12     5    25 1   
    13     6    26 1   
    14     7     8 1   
    15     7     9 1   
    16     7    27 1   
    17     8    28 1   
    18     9    10 1   
    19     9    29 1   
    20    10    11 1   
    21    10    20 1   
    22    11    12 2   
    23    11    30 1   
    24    12    13 1   
    25    13    14 1   
    26    13    20 2   
    27    14    15 2   
    28    14    16 1   
    29    16    17 1   
    30    16    31 1   
    31    17    18 1   
    32    17    19 2   
    33    18    32 1   
    34    18    33 1   
    35    19    20 1   
@<TRIPOS>SUBSTRUCTURE
     1 GMP         1 TEMP              0 ****  ****    0 ROOT
