@<TRIPOS>MOLECULE
GMQ
   81    86     1     0     0
SMALL
No Charge or Current Charge


@<TRIPOS>ATOM
      1 C1           2.7130     3.0070    -0.8140 c          1 GMQ       0.514200
      2 C2           2.3400     1.6060    -0.3840 cc         1 GMQ       0.073800
      3 C3           1.1630     1.3720     0.2960 cd         1 GMQ      -0.302600
      4 C4           0.2810     2.4660     0.6070 cd         1 GMQ       0.416200
      5 C9           4.5410     0.3520    -0.5900 ca         1 GMQ       0.633900
      6 C10          5.4200     1.2150     0.0740 ca         1 GMQ      -0.192000
      7 C11          6.7810     0.8820     0.1220 ca         1 GMQ       0.002000
      8 C12          7.1900    -0.3250    -0.4760 ca         1 GMQ      -0.244600
      9 C13          6.2210    -1.1160    -1.1200 ca         1 GMQ       0.405900
     10 C15          8.6380    -0.7170    -0.4860 c          1 GMQ       0.631700
     11 O8           3.7210     3.3030    -1.4510 o          1 GMQ      -0.526000
     12 C24         -0.9710     2.2610     1.3570 ca         1 GMQ      -0.094900
     13 C32         -6.3670     0.1140    -0.1390 ca         1 GMQ      -0.200600
     14 C33         -6.3600    -1.1720     0.4240 ca         1 GMQ      -0.094900
     15 C34         -5.3030    -1.5640     1.3640 cc         1 GMQ       0.350800
     16 C36         -7.3930     0.4670    -1.0380 ca         1 GMQ       0.241000
     17 C37         -8.3980    -0.4540    -1.3700 ca         1 GMQ      -0.169000
     18 C38         -8.4090    -1.7550    -0.8130 ca         1 GMQ      -0.002300
     19 C39         -7.3720    -2.0910     0.0860 ca         1 GMQ      -0.125000
     20 C44         -9.5010    -2.8060    -1.1520 c3         1 GMQ      -0.006700
     21 N5           0.5860     3.7180     0.2760 nc         1 GMQ      -0.429300
     22 N6           1.7580     3.9720    -0.4130 n          1 GMQ      -0.116800
     23 N7           3.1870     0.5390    -0.6760 nu         1 GMQ      -0.801900
     24 N14          4.9100    -0.7930    -1.1650 nb         1 GMQ      -0.739000
     25 O16          9.5050     0.1460    -0.5060 o          1 GMQ      -0.593100
     26 N17          8.9750    -2.0870    -0.5710 n          1 GMQ      -0.413800
     27 C18         10.3680    -2.5190    -0.9020 c6         1 GMQ       0.061000
     28 C19         11.1160    -3.0680     0.3390 c6         1 GMQ       0.131600
     29 O20         10.3420    -4.1240     0.9480 os         1 GMQ      -0.444000
     30 C21          9.0380    -3.6870     1.3880 c6         1 GMQ       0.131600
     31 C22          8.2200    -3.1350     0.1880 c6         1 GMQ       0.061000
     32 C23          1.9910     5.3930    -0.7470 c3         1 GMQ       0.095300
     33 C25         -1.1200     2.9080     2.6020 ca         1 GMQ      -0.075000
     34 C26         -2.2880     2.7450     3.3590 ca         1 GMQ      -0.103000
     35 C27         -3.3270     1.9410     2.8730 ca         1 GMQ      -0.081000
     36 C28         -3.2110     1.3020     1.6240 ca         1 GMQ       0.074600
     37 C29         -2.0300     1.4570     0.8500 ca         1 GMQ      -0.038300
     38 N30         -4.3160     0.5100     1.1660 n          1 GMQ      -0.086000
     39 C31         -5.2650     1.0490     0.2560 c          1 GMQ       0.566600
     40 N35         -4.3020    -0.7680     1.7440 nd         1 GMQ      -0.381300
     41 C40         -1.9170     0.7870    -0.5270 c3         1 GMQ       0.203900
     42 O41         -1.4250    -0.5530    -0.4030 oh         1 GMQ      -0.654000
     43 O42         -5.1740     2.1960    -0.1660 o          1 GMQ      -0.507000
     44 C45        -10.5650    -2.2770    -2.1560 c3         1 GMQ      -0.085100
     45 C46         -8.8310    -4.0570    -1.7830 c3         1 GMQ      -0.085100
     46 C47        -10.2380    -3.2180     0.1510 c3         1 GMQ      -0.085100
     47 H1           0.8940     0.3720     0.6150 ha         1 GMQ       0.220000
     48 H2           5.0570     2.1190     0.5500 ha         1 GMQ       0.132000
     49 H3           7.4930     1.5360     0.6220 ha         1 GMQ       0.132000
     50 H4           6.4950    -2.0370    -1.6330 h4         1 GMQ       0.023100
     51 H5          -5.2410    -2.5350     1.8370 h4         1 GMQ       0.046800
     52 H6          -9.1620    -0.1270    -2.0670 ha         1 GMQ       0.140000
     53 H7          -7.3450    -3.0810     0.5350 ha         1 GMQ       0.125000
     54 H8           2.7280    -0.3330    -0.9260 hn         1 GMQ       0.511000
     55 H9          10.3210    -3.3070    -1.6670 h1         1 GMQ       0.064700
     56 H10         10.9430    -1.6900    -1.3380 h1         1 GMQ       0.064700
     57 H11         12.0970    -3.4650     0.0410 h1         1 GMQ       0.053950
     58 H12         11.2780    -2.2640     1.0710 h1         1 GMQ       0.053950
     59 H13          8.5090    -4.5340     1.8460 h1         1 GMQ       0.053950
     60 H14          9.1570    -2.9050     2.1520 h1         1 GMQ       0.053950
     61 H15          7.2750    -2.7370     0.5820 h1         1 GMQ       0.064700
     62 H16          7.9700    -3.9620    -0.4910 h1         1 GMQ       0.064700
     63 H17          2.0390     5.5130    -1.8360 h1         1 GMQ       0.060367
     64 H18          1.1790     6.0210    -0.3560 h1         1 GMQ       0.060367
     65 H19          2.9390     5.7250    -0.3060 h1         1 GMQ       0.060367
     66 H20         -0.3170     3.5330     2.9890 ha         1 GMQ       0.126000
     67 H21         -2.3880     3.2430     4.3210 ha         1 GMQ       0.122000
     68 H22         -4.2330     1.8180     3.4610 ha         1 GMQ       0.127000
     69 H23         -2.8970     0.7830    -1.0200 h1         1 GMQ       0.033700
     70 H24         -1.2550     1.3750    -1.1750 h1         1 GMQ       0.033700
     71 H25         -1.4270    -0.9420    -1.3050 ho         1 GMQ       0.441000
     72 H26        -10.1040    -1.9950    -3.1100 hc         1 GMQ       0.039589
     73 H27        -11.3170    -3.0470    -2.3690 hc         1 GMQ       0.039589
     74 H28        -11.0930    -1.4050    -1.7500 hc         1 GMQ       0.039589
     75 H29         -8.1340    -4.5380    -1.0880 hc         1 GMQ       0.039589
     76 H30         -9.5830    -4.8040    -2.0660 hc         1 GMQ       0.039589
     77 H31         -8.2720    -3.7810    -2.6860 hc         1 GMQ       0.039589
     78 H32        -10.6870    -2.3410     0.6340 hc         1 GMQ       0.039589
     79 H33        -11.0400    -3.9350    -0.0620 hc         1 GMQ       0.039589
     80 H34         -9.5580    -3.6890     0.8700 hc         1 GMQ       0.039589
     81 F43         -7.4410     1.6930    -1.6060 f          1 GMQ      -0.147000
@<TRIPOS>BOND
     1     1     2 1   
     2     1    11 2   
     3     1    22 1   
     4     2     3 2   
     5     2    23 1   
     6     3     4 1   
     7     3    47 1   
     8     4    12 1   
     9     4    21 2   
    10     5     6 ar  
    11     5    23 1   
    12     5    24 ar  
    13     6     7 ar  
    14     6    48 1   
    15     7     8 ar  
    16     7    49 1   
    17     8     9 ar  
    18     8    10 1   
    19     9    24 ar  
    20     9    50 1   
    21    10    25 2   
    22    10    26 1   
    23    12    33 ar  
    24    12    37 ar  
    25    13    14 ar  
    26    13    16 ar  
    27    13    39 1   
    28    14    15 1   
    29    14    19 ar  
    30    15    40 2   
    31    15    51 1   
    32    16    17 ar  
    33    16    81 1   
    34    17    18 ar  
    35    17    52 1   
    36    18    19 ar  
    37    18    20 1   
    38    19    53 1   
    39    20    44 1   
    40    20    45 1   
    41    20    46 1   
    42    21    22 1   
    43    22    32 1   
    44    23    54 1   
    45    26    27 1   
    46    26    31 1   
    47    27    28 1   
    48    27    55 1   
    49    27    56 1   
    50    28    29 1   
    51    28    57 1   
    52    28    58 1   
    53    29    30 1   
    54    30    31 1   
    55    30    59 1   
    56    30    60 1   
    57    31    61 1   
    58    31    62 1   
    59    32    63 1   
    60    32    64 1   
    61    32    65 1   
    62    33    34 ar  
    63    33    66 1   
    64    34    35 ar  
    65    34    67 1   
    66    35    36 ar  
    67    35    68 1   
    68    36    37 ar  
    69    36    38 1   
    70    37    41 1   
    71    38    39 1   
    72    38    40 1   
    73    39    43 2   
    74    41    42 1   
    75    41    69 1   
    76    41    70 1   
    77    42    71 1   
    78    44    72 1   
    79    44    73 1   
    80    44    74 1   
    81    45    75 1   
    82    45    76 1   
    83    45    77 1   
    84    46    78 1   
    85    46    79 1   
    86    46    80 1   
@<TRIPOS>SUBSTRUCTURE
     1 GMQ         1 TEMP              0 ****  ****    0 ROOT
