@<TRIPOS>MOLECULE
GMQ
   81    86     1     0     0
SMALL
abcg2


@<TRIPOS>ATOM
      1 C1           2.7420     2.6550    -0.7400 c          1 GMQ       0.514200
      2 C2           2.2840     1.3110    -0.4030 cc         1 GMQ       0.073800
      3 C3           1.0710     1.1550     0.1880 cd         1 GMQ      -0.302600
      4 C4           0.3040     2.3030     0.5130 cd         1 GMQ       0.416200
      5 C9           4.4030     0.0830    -0.6790 ca         1 GMQ       0.633900
      6 C10          5.1740     0.8640     0.1910 ca         1 GMQ      -0.192000
      7 C11          6.5290     0.6310     0.2420 ca         1 GMQ       0.002000
      8 C12          7.0880    -0.4020    -0.5110 ca         1 GMQ      -0.244600
      9 C13          6.2240    -1.1380    -1.3100 ca         1 GMQ       0.405900
     10 C15          8.5660    -0.5850    -0.5530 c          1 GMQ       0.631700
     11 O8           3.7610     2.9020    -1.3710 o          1 GMQ      -0.526000
     12 C24         -0.9960     2.1970     1.2170 ca         1 GMQ      -0.094900
     13 C32         -6.3420     0.1530    -0.1220 ca         1 GMQ      -0.200600
     14 C33         -6.3210    -1.1670     0.3550 ca         1 GMQ      -0.094900
     15 C34         -5.2160    -1.5460     1.1890 cc         1 GMQ       0.350800
     16 C36         -7.4220     0.5140    -0.9250 ca         1 GMQ       0.241000
     17 C37         -8.4300    -0.3700    -1.2380 ca         1 GMQ      -0.169000
     18 C38         -8.4070    -1.6820    -0.7580 ca         1 GMQ      -0.002300
     19 C39         -7.3350    -2.0640     0.0380 ca         1 GMQ      -0.125000
     20 C44         -9.5100    -2.6830    -1.0780 c3         1 GMQ      -0.006700
     21 N5           0.7370     3.5060     0.2920 nc         1 GMQ      -0.429300
     22 N6           1.9170     3.6580    -0.2950 n          1 GMQ      -0.116800
     23 N7           3.0420     0.2380    -0.8120 nu         1 GMQ      -0.801900
     24 N14          4.9250    -0.9000    -1.4040 nb         1 GMQ      -0.739000
     25 O16          9.2820     0.3970    -0.7080 o          1 GMQ      -0.593100
     26 N17          9.0510    -1.8420    -0.4650 n          1 GMQ      -0.413800
     27 C18         10.4600    -2.1140    -0.7040 c6         1 GMQ       0.061000
     28 C19         11.1090    -2.6800     0.5460 c6         1 GMQ       0.131600
     29 O20         10.4230    -3.8240     1.0050 os         1 GMQ      -0.444000
     30 C21          9.0750    -3.5320     1.2870 c6         1 GMQ       0.131600
     31 C22          8.3390    -2.9910     0.0690 c6         1 GMQ       0.061000
     32 C23          2.3070     5.0320    -0.5760 c3         1 GMQ       0.095300
     33 C25         -1.1690     2.9370     2.3850 ca         1 GMQ      -0.075000
     34 C26         -2.3520     2.8680     3.1000 ca         1 GMQ      -0.103000
     35 C27         -3.3800     2.0570     2.6480 ca         1 GMQ      -0.081000
     36 C28         -3.2110     1.3300     1.4830 ca         1 GMQ       0.074600
     37 C29         -2.0350     1.3910     0.7370 ca         1 GMQ      -0.038300
     38 N30         -4.2900     0.5030     1.0420 n          1 GMQ      -0.086000
     39 C31         -5.2630     1.0670     0.2400 c          1 GMQ       0.566600
     40 N35         -4.2630    -0.7550     1.5110 nd         1 GMQ      -0.381300
     41 C40         -1.9090     0.5980    -0.5340 c3         1 GMQ       0.203900
     42 O41         -1.5450    -0.7230    -0.1960 oh         1 GMQ      -0.654000
     43 O42         -5.1710     2.2310    -0.1080 o          1 GMQ      -0.507000
     44 C45        -10.6070    -2.0850    -1.9580 c3         1 GMQ      -0.085100
     45 C46         -8.8930    -3.8840    -1.8090 c3         1 GMQ      -0.085100
     46 C47        -10.1440    -3.1570     0.2370 c3         1 GMQ      -0.085100
     47 H1           0.6920     0.1690     0.4210 ha         1 GMQ       0.220000
     48 H2           4.7260     1.6120     0.8290 ha         1 GMQ       0.132000
     49 H3           7.1520     1.2300     0.8930 ha         1 GMQ       0.132000
     50 H4           6.5990    -1.9490    -1.9250 h4         1 GMQ       0.023100
     51 H5          -5.1590    -2.5510     1.5890 h4         1 GMQ       0.046800
     52 H6          -9.2370    -0.0160    -1.8640 ha         1 GMQ       0.140000
     53 H7          -7.2700    -3.0710     0.4320 ha         1 GMQ       0.125000
     54 H8           2.5450    -0.5880    -1.1130 hn         1 GMQ       0.511000
     55 H9          10.5380    -2.8370    -1.5230 h1         1 GMQ       0.064700
     56 H10         10.9680    -1.2030    -1.0090 h1         1 GMQ       0.064700
     57 H11         12.1350    -2.9780     0.3270 h1         1 GMQ       0.053950
     58 H12         11.1390    -1.9060     1.3260 h1         1 GMQ       0.053950
     59 H13          8.5990    -4.4570     1.6150 h1         1 GMQ       0.053950
     60 H14          9.0000    -2.8010     2.1050 h1         1 GMQ       0.053950
     61 H15          7.3320    -2.7180     0.3720 h1         1 GMQ       0.064700
     62 H16          8.2600    -3.7650    -0.7000 h1         1 GMQ       0.064700
     63 H17          2.3250     5.2170    -1.6490 h1         1 GMQ       0.060367
     64 H18          1.5760     5.6840    -0.1100 h1         1 GMQ       0.060367
     65 H19          3.2930     5.2390    -0.1670 h1         1 GMQ       0.060367
     66 H20         -0.3600     3.5590     2.7440 ha         1 GMQ       0.126000
     67 H21         -2.4710     3.4400     4.0100 ha         1 GMQ       0.122000
     68 H22         -4.3100     1.9880     3.1970 ha         1 GMQ       0.127000
     69 H23         -2.8560     0.6220    -1.0850 h1         1 GMQ       0.033700
     70 H24         -1.1690     1.0680    -1.1910 h1         1 GMQ       0.033700
     71 H25         -1.4630    -1.2250    -1.0130 ho         1 GMQ       0.441000
     72 H26        -10.2270    -1.7610    -2.9290 hc         1 GMQ       0.039589
     73 H27        -11.3730    -2.8400    -2.1420 hc         1 GMQ       0.039589
     74 H28        -11.1010    -1.2360    -1.4820 hc         1 GMQ       0.039589
     75 H29         -8.1310    -4.3790    -1.2060 hc         1 GMQ       0.039589
     76 H30         -9.6660    -4.6230    -2.0300 hc         1 GMQ       0.039589
     77 H31         -8.4340    -3.5820    -2.7520 hc         1 GMQ       0.039589
     78 H32        -10.5830    -2.3240     0.7890 hc         1 GMQ       0.039589
     79 H33        -10.9370    -3.8770     0.0270 hc         1 GMQ       0.039589
     80 H34         -9.4210    -3.6490     0.8890 hc         1 GMQ       0.039589
     81 F43         -7.5050     1.7490    -1.4160 f          1 GMQ      -0.147000
@<TRIPOS>BOND
     1     1     2 1   
     2     1    11 2   
     3     1    22 1   
     4     2     3 2   
     5     2    23 1   
     6     3     4 1   
     7     3    47 1   
     8     4    12 1   
     9     4    21 2   
    10     5     6 ar  
    11     5    23 1   
    12     5    24 ar  
    13     6     7 ar  
    14     6    48 1   
    15     7     8 ar  
    16     7    49 1   
    17     8     9 ar  
    18     8    10 1   
    19     9    24 ar  
    20     9    50 1   
    21    10    25 2   
    22    10    26 1   
    23    12    33 ar  
    24    12    37 ar  
    25    13    14 ar  
    26    13    16 ar  
    27    13    39 1   
    28    14    15 1   
    29    14    19 ar  
    30    15    40 2   
    31    15    51 1   
    32    16    17 ar  
    33    16    81 1   
    34    17    18 ar  
    35    17    52 1   
    36    18    19 ar  
    37    18    20 1   
    38    19    53 1   
    39    20    44 1   
    40    20    45 1   
    41    20    46 1   
    42    21    22 1   
    43    22    32 1   
    44    23    54 1   
    45    26    27 1   
    46    26    31 1   
    47    27    28 1   
    48    27    55 1   
    49    27    56 1   
    50    28    29 1   
    51    28    57 1   
    52    28    58 1   
    53    29    30 1   
    54    30    31 1   
    55    30    59 1   
    56    30    60 1   
    57    31    61 1   
    58    31    62 1   
    59    32    63 1   
    60    32    64 1   
    61    32    65 1   
    62    33    34 ar  
    63    33    66 1   
    64    34    35 ar  
    65    34    67 1   
    66    35    36 ar  
    67    35    68 1   
    68    36    37 ar  
    69    36    38 1   
    70    37    41 1   
    71    38    39 1   
    72    38    40 1   
    73    39    43 2   
    74    41    42 1   
    75    41    69 1   
    76    41    70 1   
    77    42    71 1   
    78    44    72 1   
    79    44    73 1   
    80    44    74 1   
    81    45    75 1   
    82    45    76 1   
    83    45    77 1   
    84    46    78 1   
    85    46    79 1   
    86    46    80 1   
@<TRIPOS>SUBSTRUCTURE
     1 GMQ         1 TEMP              0 ****  ****    0 ROOT
