@<TRIPOS>MOLECULE
GMR
   68    70     1     0     0
SMALL
No Charge or Current Charge


@<TRIPOS>ATOM
      1 S1          -3.8330     2.7460    -0.0610 sy         1 GMR       1.199300
      2 O2          -3.8420     0.1110     1.5100 o          1 GMR      -0.615100
      3 O3          -4.1550     3.5350    -1.2550 o          1 GMR      -0.529000
      4 O4          -4.3080     3.1430     1.2700 o          1 GMR      -0.529000
      5 O5           6.6030     1.1880     0.3100 o          1 GMR      -0.545000
      6 O6           4.0240    -2.0950    -0.1500 o          1 GMR      -0.628100
      7 N7          -5.0040    -0.9450    -0.1370 ns         1 GMR      -0.507900
      8 N8          -4.4720     1.2310    -0.3630 ns         1 GMR      -0.603300
      9 N9           6.0600    -1.0620     0.0540 n          1 GMR      -0.393400
     10 N10          4.0550     0.1560     0.0830 ns         1 GMR      -0.512900
     11 C11         -7.8640    -3.2820    -0.2660 c6         1 GMR      -0.064700
     12 C12         -5.1080    -2.2740     0.4790 c6         1 GMR       0.128700
     13 C13         -7.6630    -2.1920     0.8210 c6         1 GMR      -0.072900
     14 C14         -6.7070    -3.2430    -1.3000 c6         1 GMR      -0.072900
     15 C15         -6.2750    -2.3250     1.5020 c6         1 GMR      -0.092900
     16 C16         -5.3240    -3.3620    -0.6070 c6         1 GMR      -0.092900
     17 C17         -9.2480    -3.1470    -0.9550 c3         1 GMR      -0.086100
     18 C18         -4.3930     0.1410     0.4250 c          1 GMR       0.675100
     19 C19          6.8120    -2.3380    -0.0420 c5         1 GMR       0.121200
     20 C20          8.2740    -1.8850     0.0800 c2         1 GMR      -0.079400
     21 C21          8.2860    -0.5410     0.2120 ce         1 GMR      -0.183400
     22 C22         -2.0480     2.4950     0.0070 ca         1 GMR      -0.297500
     23 C23          6.9200     0.0110     0.2050 c          1 GMR       0.576200
     24 C24          9.5060     0.3550     0.3730 c3         1 GMR      -0.014200
     25 C26          0.7460     2.0900     0.1020 ca         1 GMR      -0.023300
     26 C27          4.6660    -1.0650    -0.0130 c          1 GMR       0.666100
     27 C28          2.6090     0.3720     0.0360 c3         1 GMR       0.122000
     28 C29          9.4380    -2.8540     0.0480 c3         1 GMR      -0.052900
     29 C30         -1.2910     2.4970    -1.1830 ca         1 GMR       0.000500
     30 C31         -1.4040     2.2850     1.2440 ca         1 GMR       0.000500
     31 C32          0.0990     2.2950    -1.1310 ca         1 GMR      -0.130000
     32 C33         -0.0140     2.0830     1.2870 ca         1 GMR      -0.130000
     33 C34         10.2480     0.5910    -0.9560 c3         1 GMR      -0.086100
     34 H1          -5.4320    -0.8100    -1.0410 hn         1 GMR       0.317500
     35 H2          -4.9190     1.1880    -1.2600 hn         1 GMR       0.337500
     36 H3           4.6750     0.9510     0.1950 hn         1 GMR       0.354500
     37 H4          -7.8600    -4.2660     0.2240 hc         1 GMR       0.047700
     38 H5          -4.1630    -2.4830     1.0040 h1         1 GMR       0.073700
     39 H6          -7.7640    -1.1920     0.3750 hc         1 GMR       0.039950
     40 H7          -8.4520    -2.2720     1.5810 hc         1 GMR       0.039950
     41 H8          -6.8250    -4.0640    -2.0210 hc         1 GMR       0.039950
     42 H9          -6.7570    -2.3140    -1.8840 hc         1 GMR       0.039950
     43 H10         -6.2310    -3.2740     2.0540 hc         1 GMR       0.054950
     44 H11         -6.1510    -1.5330     2.2530 hc         1 GMR       0.054950
     45 H12         -4.5230    -3.3030    -1.3570 hc         1 GMR       0.054950
     46 H13         -5.2340    -4.3550    -0.1450 hc         1 GMR       0.054950
     47 H14         -9.4000    -3.9430    -1.6950 hc         1 GMR       0.034033
     48 H15        -10.0620    -3.2150    -0.2250 hc         1 GMR       0.034033
     49 H16         -9.3440    -2.1860    -1.4750 hc         1 GMR       0.034033
     50 H17          6.5330    -3.0270     0.7670 h1         1 GMR       0.082200
     51 H18          6.6240    -2.8410    -1.0000 h1         1 GMR       0.082200
     52 H19          9.2200     1.3280     0.7920 hc         1 GMR       0.054200
     53 H20         10.2050    -0.0850     1.0950 hc         1 GMR       0.054200
     54 H21          2.7410     2.4170    -0.6570 hc         1 GMR       0.061200
     55 H22          2.6590     2.2600     1.0900 hc         1 GMR       0.061200
     56 H23          2.2220    -0.0250    -0.9120 h1         1 GMR       0.054700
     57 H24          2.1400    -0.1840     0.8580 h1         1 GMR       0.054700
     58 H25          9.3400    -3.6080     0.8380 hc         1 GMR       0.054033
     59 H26          9.4800    -3.3810    -0.9130 hc         1 GMR       0.054033
     60 H27         10.4000    -2.3490     0.1910 hc         1 GMR       0.054033
     61 H28         -1.7720     2.6520    -2.1480 ha         1 GMR       0.140500
     62 H29         -1.9740     2.2690     2.1720 ha         1 GMR       0.140500
     63 H30          0.6740     2.2960    -2.0540 ha         1 GMR       0.119500
     64 H31          0.4720     1.9190     2.2450 ha         1 GMR       0.119500
     65 H32         10.5970    -0.3570    -1.3820 hc         1 GMR       0.038033
     66 H33          9.5860     1.0740    -1.6840 hc         1 GMR       0.038033
     67 H34         11.1180     1.2390    -0.7980 hc         1 GMR       0.038033
     68 C25          2.2500     1.8640     0.1530 c3         1 GMR      -0.060100
@<TRIPOS>BOND
     1     1     3 2   
     2     1     4 2   
     3     1     8 1   
     4     1    22 1   
     5     2    18 2   
     6     5    23 2   
     7     6    26 2   
     8     7    12 1   
     9     7    18 1   
    10     7    34 1   
    11     8    18 1   
    12     8    35 1   
    13     9    19 1   
    14     9    23 1   
    15     9    26 1   
    16    10    26 1   
    17    10    27 1   
    18    10    36 1   
    19    11    13 1   
    20    11    14 1   
    21    11    17 1   
    22    11    37 1   
    23    12    15 1   
    24    12    16 1   
    25    12    38 1   
    26    13    15 1   
    27    13    39 1   
    28    13    40 1   
    29    14    16 1   
    30    14    41 1   
    31    14    42 1   
    32    15    43 1   
    33    15    44 1   
    34    16    45 1   
    35    16    46 1   
    36    17    47 1   
    37    17    48 1   
    38    17    49 1   
    39    19    20 1   
    40    19    50 1   
    41    19    51 1   
    42    20    21 2   
    43    20    28 1   
    44    21    23 1   
    45    21    24 1   
    46    22    29 ar  
    47    22    30 ar  
    48    24    33 1   
    49    24    52 1   
    50    24    53 1   
    51    25    31 ar  
    52    25    32 ar  
    53    25    68 1   
    54    27    56 1   
    55    27    57 1   
    56    27    68 1   
    57    28    58 1   
    58    28    59 1   
    59    28    60 1   
    60    29    31 ar  
    61    29    61 1   
    62    30    32 ar  
    63    30    62 1   
    64    31    63 1   
    65    32    64 1   
    66    33    65 1   
    67    33    66 1   
    68    33    67 1   
    69    54    68 1   
    70    55    68 1   
@<TRIPOS>SUBSTRUCTURE
     1 GMR         1 TEMP              0 ****  ****    0 ROOT
