@<TRIPOS>MOLECULE
GMR
   68    70     1     0     0
SMALL
abcg2


@<TRIPOS>ATOM
      1 S1          -3.7790     2.8830    -0.0950 sy         1 GMR       1.199300
      2 O2          -3.8450     0.3750     1.4440 o          1 GMR      -0.615100
      3 O3          -4.0310     3.6970    -1.2700 o          1 GMR      -0.529000
      4 O4          -4.2990     3.2960     1.1920 o          1 GMR      -0.529000
      5 O5           6.4880     1.0910     0.3140 o          1 GMR      -0.545000
      6 O6           3.7380    -2.0130    -0.1640 o          1 GMR      -0.628100
      7 N7          -4.7840    -0.8450    -0.2260 ns         1 GMR      -0.507900
      8 N8          -4.4150     1.4000    -0.5040 ns         1 GMR      -0.603300
      9 N9           5.7990    -1.1040     0.0520 n          1 GMR      -0.393400
     10 N10          3.8930     0.2250     0.1170 ns         1 GMR      -0.512900
     11 C11         -7.4070    -3.4020    -0.2540 c6         1 GMR      -0.064700
     12 C12         -4.8270    -2.1090     0.4990 c6         1 GMR       0.128700
     13 C13         -7.3470    -2.2300     0.7250 c6         1 GMR      -0.072900
     14 C14         -6.2310    -3.3380    -1.2260 c6         1 GMR      -0.072900
     15 C15         -6.0140    -2.1710     1.4630 c6         1 GMR      -0.092900
     16 C16         -4.8890    -3.2600    -0.5020 c6         1 GMR      -0.092900
     17 C17         -8.7360    -3.4460    -0.9950 c3         1 GMR      -0.086100
     18 C18         -4.3210     0.2840     0.3270 c          1 GMR       0.675100
     19 C19          6.4450    -2.3940    -0.0570 c5         1 GMR       0.121200
     20 C20          7.8960    -2.0560     0.0570 c2         1 GMR      -0.079400
     21 C21          8.0570    -0.7350     0.2050 ce         1 GMR      -0.183400
     22 C22         -2.0410     2.6110     0.0490 ca         1 GMR      -0.297500
     23 C23          6.7330    -0.0990     0.2010 c          1 GMR       0.576200
     24 C24          9.3070     0.0710     0.3160 c3         1 GMR      -0.014200
     25 C26          0.6950     2.1920     0.2340 ca         1 GMR      -0.023300
     26 C27          4.4070    -1.0040    -0.0080 c          1 GMR       0.666100
     27 C28          2.4660     0.4510     0.0620 c3         1 GMR       0.122000
     28 C29          8.9250    -3.1230     0.0030 c3         1 GMR      -0.052900
     29 C30         -1.2780     2.5650    -1.1120 ca         1 GMR       0.000500
     30 C31         -1.4600     2.4580     1.2990 ca         1 GMR       0.000500
     31 C32          0.0850     2.3530    -1.0090 ca         1 GMR      -0.130000
     32 C33         -0.0930     2.2480     1.3800 ca         1 GMR      -0.130000
     33 C34          9.7190     0.6850    -1.0220 c3         1 GMR      -0.086100
     34 H1          -5.1680    -0.8150    -1.1570 hn         1 GMR       0.317500
     35 H2          -4.7030     1.3110    -1.4720 hn         1 GMR       0.337500
     36 H3           4.5220     1.0090     0.2260 hn         1 GMR       0.354500
     37 H4          -7.3060    -4.3270     0.3310 hc         1 GMR       0.047700
     38 H5          -3.8990    -2.1900     1.0700 h1         1 GMR       0.073700
     39 H6          -7.5120    -1.2940     0.1810 hc         1 GMR       0.039950
     40 H7          -8.1640    -2.3100     1.4480 hc         1 GMR       0.039950
     41 H8          -6.2380    -4.2150    -1.8790 hc         1 GMR       0.039950
     42 H9          -6.3660    -2.4770    -1.8930 hc         1 GMR       0.039950
     43 H10         -5.9000    -3.0650     2.0840 hc         1 GMR       0.054950
     44 H11         -5.9840    -1.3170     2.1420 hc         1 GMR       0.054950
     45 H12         -4.0660    -3.1740    -1.2160 hc         1 GMR       0.054950
     46 H13         -4.7280    -4.1890     0.0500 hc         1 GMR       0.054950
     47 H14         -8.7860    -4.3010    -1.6710 hc         1 GMR       0.034033
     48 H15         -9.5770    -3.5200    -0.3020 hc         1 GMR       0.034033
     49 H16         -8.8780    -2.5420    -1.5930 hc         1 GMR       0.034033
     50 H17          6.1260    -3.0730     0.7370 h1         1 GMR       0.082200
     51 H18          6.2220    -2.8740    -1.0130 h1         1 GMR       0.082200
     52 H19          9.1600     0.8640     1.0530 hc         1 GMR       0.054200
     53 H20         10.1160    -0.5530     0.6980 hc         1 GMR       0.054200
     54 H21          2.6990     2.5380    -0.4110 hc         1 GMR       0.061200
     55 H22          2.5430     2.2050     1.3110 hc         1 GMR       0.061200
     56 H23          2.0670     0.1650    -0.9150 h1         1 GMR       0.054700
     57 H24          1.9560    -0.1620     0.8090 h1         1 GMR       0.054700
     58 H25          8.7750    -3.8400     0.8120 hc         1 GMR       0.054033
     59 H26          8.8530    -3.6820    -0.9320 hc         1 GMR       0.054033
     60 H27          9.9340    -2.7240     0.0840 hc         1 GMR       0.054033
     61 H28         -1.7290     2.6980    -2.0860 ha         1 GMR       0.140500
     62 H29         -2.0560     2.5030     2.1990 ha         1 GMR       0.140500
     63 H30          0.6850     2.3200    -1.9110 ha         1 GMR       0.119500
     64 H31          0.3660     2.1290     2.3540 ha         1 GMR       0.119500
     65 H32          9.9150    -0.0900    -1.7620 hc         1 GMR       0.038033
     66 H33          8.9380     1.3350    -1.4170 hc         1 GMR       0.038033
     67 H34         10.6250     1.2810    -0.9110 hc         1 GMR       0.038033
     68 C25          2.1690     1.9260     0.3240 c3         1 GMR      -0.060100
@<TRIPOS>BOND
     1     1     3 2   
     2     1     4 2   
     3     1     8 1   
     4     1    22 1   
     5     2    18 2   
     6     5    23 2   
     7     6    26 2   
     8     7    12 1   
     9     7    18 1   
    10     7    34 1   
    11     8    18 1   
    12     8    35 1   
    13     9    19 1   
    14     9    23 1   
    15     9    26 1   
    16    10    26 1   
    17    10    27 1   
    18    10    36 1   
    19    11    13 1   
    20    11    14 1   
    21    11    17 1   
    22    11    37 1   
    23    12    15 1   
    24    12    16 1   
    25    12    38 1   
    26    13    15 1   
    27    13    39 1   
    28    13    40 1   
    29    14    16 1   
    30    14    41 1   
    31    14    42 1   
    32    15    43 1   
    33    15    44 1   
    34    16    45 1   
    35    16    46 1   
    36    17    47 1   
    37    17    48 1   
    38    17    49 1   
    39    19    20 1   
    40    19    50 1   
    41    19    51 1   
    42    20    21 2   
    43    20    28 1   
    44    21    23 1   
    45    21    24 1   
    46    22    29 ar  
    47    22    30 ar  
    48    24    33 1   
    49    24    52 1   
    50    24    53 1   
    51    25    31 ar  
    52    25    32 ar  
    53    25    68 1   
    54    27    56 1   
    55    27    57 1   
    56    27    68 1   
    57    28    58 1   
    58    28    59 1   
    59    28    60 1   
    60    29    31 ar  
    61    29    61 1   
    62    30    32 ar  
    63    30    62 1   
    64    31    63 1   
    65    32    64 1   
    66    33    65 1   
    67    33    66 1   
    68    33    67 1   
    69    54    68 1   
    70    55    68 1   
@<TRIPOS>SUBSTRUCTURE
     1 GMR         1 TEMP              0 ****  ****    0 ROOT
