@<TRIPOS>MOLECULE
GMT
   40    40     1     0     0
SMALL
No Charge or Current Charge


@<TRIPOS>ATOM
      1 O16          3.0630     2.1200     1.3240 o          1 GMT      -0.772500
      2 C12          2.7240     1.7690     0.2050 c          1 GMT       0.710000
      3 O15          3.1410     0.7570    -0.3380 o          1 GMT      -0.772500
      4 C11          1.6890     2.6210    -0.5400 c3         1 GMT      -0.193400
      5 C9           0.2370     2.2130    -0.1610 c3         1 GMT       0.055300
      6 C10         -0.8350     3.0820    -0.9220 c          1 GMT       0.712000
      7 O14         -0.9490     4.2610    -0.6050 o          1 GMT      -0.749500
      8 O13         -1.5450     2.5650    -1.7780 o          1 GMT      -0.749500
      9 O1           0.1150     0.7890    -0.4210 os         1 GMT      -0.463000
     10 C1          -0.0410    -0.0750     0.7270 c6         1 GMT       0.383300
     11 O5          -1.3980     0.0210     1.2130 os         1 GMT      -0.472000
     12 C5          -2.4180    -0.3920     0.2580 c6         1 GMT       0.143300
     13 C6          -3.8210    -0.1830     0.9200 c3         1 GMT       0.174600
     14 O6          -4.0370     1.1550     1.3960 oh         1 GMT      -0.658000
     15 C4          -2.1770    -1.8750    -0.1750 c6         1 GMT       0.101300
     16 O4          -3.1190    -2.3100    -1.1810 oh         1 GMT      -0.728000
     17 C3          -0.7210    -2.0340    -0.7120 c6         1 GMT       0.154300
     18 O3          -0.5160    -3.4050    -1.0990 oh         1 GMT      -0.657000
     19 C2           0.3050    -1.5510     0.3660 c6         1 GMT       0.095700
     20 N2           1.7200    -1.6650    -0.0650 ns         1 GMT      -0.472900
     21 C7           2.5310    -2.7600     0.0890 c          1 GMT       0.610100
     22 O7           2.1630    -3.7880     0.6410 o          1 GMT      -0.686100
     23 C8           3.9430    -2.5970    -0.4610 c3         1 GMT      -0.181100
     24 H2           1.7820     3.6690    -0.2320 hc         1 GMT       0.035200
     25 H3           1.7770     2.4730    -1.6230 hc         1 GMT       0.035200
     26 H4           0.0930     2.4160     0.9090 h1         1 GMT       0.035700
     27 H6           0.6490     0.2490     1.5220 h2         1 GMT       0.078700
     28 H7          -2.3690     0.2560    -0.6290 h1         1 GMT       0.134700
     29 H8          -4.5960    -0.4360     0.1860 h1         1 GMT      -0.009800
     30 H9          -3.9180    -0.8900     1.7550 h1         1 GMT      -0.009800
     31 H10         -4.9050     1.1560     1.8580 ho         1 GMT       0.466000
     32 H11         -2.2810    -2.5090     0.7180 h1         1 GMT       0.022700
     33 H12         -3.9760    -2.4880    -0.7270 ho         1 GMT       0.481000
     34 H13         -0.6150    -1.3870    -1.5960 h1         1 GMT       0.085700
     35 H14         -1.3810    -3.6770    -1.4810 ho         1 GMT       0.427000
     36 H15          0.1750    -2.1570     1.2740 h1         1 GMT       0.067700
     37 H16          2.1790    -0.8220    -0.4210 hn         1 GMT       0.389500
     38 H17          3.8900    -2.2350    -1.4940 hc         1 GMT       0.057700
     39 H18          4.4280    -1.7610     0.0550 hc         1 GMT       0.057700
     40 H19          4.5390    -3.5120    -0.3760 hc         1 GMT       0.057700
@<TRIPOS>BOND
     1     1     2 1   
     2     2     3 1   
     3     2     4 1   
     4     4     5 1   
     5     4    24 1   
     6     4    25 1   
     7     5     6 1   
     8     5     9 1   
     9     5    26 1   
    10     6     7 1   
    11     6     8 1   
    12     9    10 1   
    13    10    11 1   
    14    10    19 1   
    15    10    27 1   
    16    11    12 1   
    17    12    13 1   
    18    12    15 1   
    19    12    28 1   
    20    13    14 1   
    21    13    29 1   
    22    13    30 1   
    23    14    31 1   
    24    15    16 1   
    25    15    17 1   
    26    15    32 1   
    27    16    33 1   
    28    17    18 1   
    29    17    19 1   
    30    17    34 1   
    31    18    35 1   
    32    19    20 1   
    33    19    36 1   
    34    20    21 1   
    35    20    37 1   
    36    21    22 2   
    37    21    23 1   
    38    23    38 1   
    39    23    39 1   
    40    23    40 1   
@<TRIPOS>SUBSTRUCTURE
     1 GMT         1 TEMP              0 ****  ****    0 ROOT
