@<TRIPOS>MOLECULE
GMT
   40    40     1     0     0
SMALL
bcc


@<TRIPOS>ATOM
      1 O16          3.3330     1.8170     0.7130 o          1 GMT      -0.877800
      2 C12          2.8130     1.6500    -0.4060 c          1 GMT       0.920600
      3 O15          3.1630     0.8090    -1.2690 o          1 GMT      -0.877800
      4 C11          1.6080     2.5410    -0.7430 c3         1 GMT      -0.193400
      5 C9           0.3820     2.1000     0.0540 c3         1 GMT       0.032100
      6 C10         -0.8230     2.9940    -0.2950 c          1 GMT       0.922600
      7 O14         -0.9130     4.0440     0.3760 o          1 GMT      -0.854800
      8 O13         -1.5530     2.6420    -1.2380 o          1 GMT      -0.854800
      9 O1           0.1630     0.7330    -0.2560 os         1 GMT      -0.416600
     10 C1          -0.1240    -0.1190     0.7940 c6         1 GMT       0.336900
     11 O5          -1.4530    -0.0400     1.2230 os         1 GMT      -0.425600
     12 C5          -2.4250    -0.3640     0.2400 c6         1 GMT       0.120100
     13 C6          -3.7810    -0.2490     0.9020 c3         1 GMT       0.151400
     14 O6          -4.0100     1.0850     1.2820 oh         1 GMT      -0.535800
     15 C4          -2.1890    -1.7840    -0.2900 c6         1 GMT       0.078100
     16 O4          -3.0370    -2.0720    -1.3840 oh         1 GMT      -0.605800
     17 C3          -0.7530    -1.9520    -0.7800 c6         1 GMT       0.131100
     18 O3          -0.4800    -3.2860    -1.1270 oh         1 GMT      -0.594800
     19 C2           0.2110    -1.5380     0.3280 c6         1 GMT       0.095700
     20 N2           1.5920    -1.6120    -0.0750 ns         1 GMT      -0.539900
     21 C7           2.4290    -2.5840     0.3270 c          1 GMT       0.677100
     22 O7           2.0910    -3.5160     1.0480 o          1 GMT      -0.686100
     23 C8           3.8400    -2.4550    -0.1920 c3         1 GMT      -0.181100
     24 H2           1.8210     3.5830    -0.4900 hc         1 GMT       0.035200
     25 H3           1.3760     2.5000    -1.8110 hc         1 GMT       0.035200
     26 H4           0.6070     2.2050     1.1230 h1         1 GMT       0.035700
     27 H6           0.4780     0.1300     1.6780 h2         1 GMT       0.078700
     28 H7          -2.3650     0.3460    -0.5940 h1         1 GMT       0.134700
     29 H8          -4.5430    -0.5970     0.1920 h1         1 GMT      -0.009800
     30 H9          -3.8140    -0.9310     1.7640 h1         1 GMT      -0.009800
     31 H10         -4.8700     1.1230     1.7110 ho         1 GMT       0.367000
     32 H11         -2.3510    -2.5010     0.5280 h1         1 GMT       0.022700
     33 H12         -3.8640    -2.4360    -1.0560 ho         1 GMT       0.382000
     34 H13         -0.6080    -1.2890    -1.6460 h1         1 GMT       0.085700
     35 H14         -1.0730    -3.5300    -1.8450 ho         1 GMT       0.388000
     36 H15          0.0740    -2.2100     1.1780 h1         1 GMT       0.067700
     37 H16          1.9740    -0.8430    -0.6170 hn         1 GMT       0.389500
     38 H17          3.9920    -3.1660    -1.0060 hc         1 GMT       0.057700
     39 H18          4.0620    -1.4550    -0.5610 hc         1 GMT       0.057700
     40 H19          4.5450    -2.7100     0.5980 hc         1 GMT       0.057700
@<TRIPOS>BOND
     1     1     2 1   
     2     2     3 1   
     3     2     4 1   
     4     4     5 1   
     5     4    24 1   
     6     4    25 1   
     7     5     6 1   
     8     5     9 1   
     9     5    26 1   
    10     6     7 1   
    11     6     8 1   
    12     9    10 1   
    13    10    11 1   
    14    10    19 1   
    15    10    27 1   
    16    11    12 1   
    17    12    13 1   
    18    12    15 1   
    19    12    28 1   
    20    13    14 1   
    21    13    29 1   
    22    13    30 1   
    23    14    31 1   
    24    15    16 1   
    25    15    17 1   
    26    15    32 1   
    27    16    33 1   
    28    17    18 1   
    29    17    19 1   
    30    17    34 1   
    31    18    35 1   
    32    19    20 1   
    33    19    36 1   
    34    20    21 1   
    35    20    37 1   
    36    21    22 2   
    37    21    23 1   
    38    23    38 1   
    39    23    39 1   
    40    23    40 1   
@<TRIPOS>SUBSTRUCTURE
     1 GMT         1 TEMP              0 ****  ****    0 ROOT
