@<TRIPOS>MOLECULE
GMW
   86    92     1     0     0
SMALL
abcg2


@<TRIPOS>ATOM
      1 C1          -5.3060    -0.3850    -0.0330 ca         1 GMW      -0.220000
      2 C2          -6.6220    -0.5090    -0.4080 ca         1 GMW      -0.011000
      3 C3          -7.6150    -0.6910     0.5600 ca         1 GMW      -0.268600
      4 C4          -7.1930    -0.7600     1.8800 ca         1 GMW       0.437900
      5 C6          -4.9970    -0.4330     1.3380 ca         1 GMW       0.651900
      6 C12        -10.2430     2.1440    -0.8150 c6         1 GMW       0.130100
      7 C15        -10.9620    -0.5410    -1.2040 c6         1 GMW       0.060000
      8 C16          0.7090    -1.1810    -0.1470 ca         1 GMW      -0.020800
      9 C17          0.4800    -2.4840    -0.5840 ca         1 GMW      -0.094000
     10 C18          1.5330    -3.3550    -0.8100 ca         1 GMW      -0.104000
     11 C23         -0.4380     1.0080    -0.4000 cc         1 GMW       0.112400
     12 C25         -2.6460     1.4360     0.5220 c          1 GMW       0.540200
     13 C26         -2.6280     0.0820     1.0250 cc         1 GMW      -0.020200
     14 C27         -1.5610    -0.7280     0.8080 cd         1 GMW      -0.074000
     15 N5          -5.9350    -0.6180     2.2670 nb         1 GMW      -0.759000
     16 N7          -3.7210    -0.3410     1.7950 nu         1 GMW      -0.803900
     17 C8          -9.0420    -0.9590     0.2400 c          1 GMW       0.634700
     18 N9          -9.6310    -0.2100    -0.7200 n          1 GMW      -0.411800
     19 O10         -9.6300    -1.8660     0.8210 o          1 GMW      -0.605100
     20 C11         -9.1880     1.1030    -1.1610 c6         1 GMW       0.060000
     21 O13        -11.5100     1.8090    -1.3300 os         1 GMW      -0.447000
     22 C14        -11.9450     0.5580    -0.8450 c6         1 GMW       0.130100
     23 C19          2.8340    -2.9250    -0.6050 ca         1 GMW      -0.085000
     24 C20          3.0640    -1.6320    -0.1640 ca         1 GMW       0.062600
     25 C21          2.0230    -0.7420     0.0840 ca         1 GMW      -0.047300
     26 C22         -0.4330    -0.2770     0.0920 cd         1 GMW      -0.160200
     27 N24         -1.4990     1.8320    -0.1680 n          1 GMW      -0.253000
     28 N29          4.4150    -1.2330     0.0780 n          1 GMW      -0.086000
     29 C30          5.0810    -0.5160    -0.8960 c          1 GMW       0.569600
     30 C31          6.1120    -1.3160     1.5620 cc         1 GMW       0.357800
     31 N32          4.9080    -1.6310     1.2630 nd         1 GMW      -0.399300
     32 O33          4.5230    -0.2350    -1.9410 o          1 GMW      -0.512000
     33 C34          6.9730    -0.5550     0.7010 ca         1 GMW      -0.097900
     34 C35          6.4510    -0.1530    -0.5380 ca         1 GMW      -0.200600
     35 C36          7.2940     0.5850    -1.3650 ca         1 GMW       0.239000
     36 C37          8.5770     0.9190    -0.9930 ca         1 GMW      -0.167000
     37 C38          9.0920     0.5180     0.2430 ca         1 GMW      -0.001300
     38 C39          8.2700    -0.2260     1.0790 ca         1 GMW      -0.123000
     39 C40          0.7240     1.4720    -1.2300 c3         1 GMW      -0.053200
     40 C41          2.2470     0.6430     0.6150 c3         1 GMW      -0.072100
     41 C42          1.9880     1.7490    -0.4170 c3         1 GMW       0.182300
     42 F43          6.8700     0.9960    -2.5590 f          1 GMW      -0.148000
     43 C44         10.5040     0.8750     0.6880 c3         1 GMW      -0.006700
     44 C45         11.2760    -0.4200     0.9720 c3         1 GMW      -0.085100
     45 C46         11.2650     1.6720    -0.3710 c3         1 GMW      -0.085100
     46 C47         10.4170     1.7250     1.9630 c3         1 GMW      -0.085100
     47 O48          1.8380     2.9970     0.2200 oh         1 GMW      -0.667000
     48 C49         -1.4740     3.2120    -0.6520 c3         1 GMW       0.055300
     49 H1          -4.5300    -0.2840    -0.7780 ha         1 GMW       0.127000
     50 H2          -6.8720    -0.4920    -1.4620 ha         1 GMW       0.118000
     51 H3          -7.9150    -0.9260     2.6720 h4         1 GMW       0.030100
     52 H4         -10.2870     2.2580     0.2780 h1         1 GMW       0.053950
     53 H5          -9.9570     3.1060    -1.2420 h1         1 GMW       0.053950
     54 H6         -10.9170    -0.6550    -2.2920 h1         1 GMW       0.064950
     55 H7         -11.2880    -1.4880    -0.7830 h1         1 GMW       0.064950
     56 H8          -0.5350    -2.8150    -0.7660 ha         1 GMW       0.121000
     57 H9           1.3400    -4.3620    -1.1550 ha         1 GMW       0.122000
     58 H10         -1.5750    -1.7360     1.2060 ha         1 GMW       0.199000
     59 H11         -3.6000    -0.4360     2.7920 hn         1 GMW       0.513000
     60 H12         -9.0110     1.0870    -2.2400 h1         1 GMW       0.064950
     61 H13         -8.2580     1.3850    -0.6740 h1         1 GMW       0.064950
     62 H14        -12.9160     0.3500    -1.2960 h1         1 GMW       0.053950
     63 H15        -12.0780     0.5900     0.2460 h1         1 GMW       0.053950
     64 H16          3.6700    -3.5890    -0.7830 ha         1 GMW       0.127000
     65 H17          6.4690    -1.6560     2.5250 h4         1 GMW       0.048800
     66 H18          9.1690     1.5020    -1.6850 ha         1 GMW       0.141000
     67 H19          8.6260    -0.5630     2.0450 ha         1 GMW       0.126000
     68 H20          0.9570     0.6710    -1.9340 hc         1 GMW       0.079200
     69 H21          0.4930     2.3400    -1.8430 hc         1 GMW       0.079200
     70 H22          1.5590     0.8020     1.4510 hc         1 GMW       0.061700
     71 H23          3.2540     0.7560     1.0190 hc         1 GMW       0.061700
     72 H24          2.8200     1.7750    -1.1310 h1         1 GMW       0.057700
     73 H25         11.3330    -1.0450     0.0790 hc         1 GMW       0.039922
     74 H26         12.2960    -0.1890     1.2850 hc         1 GMW       0.039922
     75 H27         10.8150    -1.0110     1.7640 hc         1 GMW       0.039922
     76 H28         10.7740     2.6170    -0.6080 hc         1 GMW       0.039922
     77 H29         12.2610     1.9100     0.0040 hc         1 GMW       0.039922
     78 H30         11.3910     1.1110    -1.2990 hc         1 GMW       0.039922
     79 H31          9.9210     1.1960     2.7780 hc         1 GMW       0.039922
     80 H32         11.4190     1.9920     2.3040 hc         1 GMW       0.039922
     81 H33          9.8700     2.6510     1.7800 hc         1 GMW       0.039922
     82 H34          2.6390     3.1870     0.7190 ho         1 GMW       0.450000
     83 H35         -2.2510     3.7750    -0.1490 h1         1 GMW       0.066033
     84 H36         -0.5150     3.6690    -0.4330 h1         1 GMW       0.066033
     85 H37         -1.6590     3.2490    -1.7250 h1         1 GMW       0.066033
     86 O28         -3.5900     2.2010     0.6810 o          1 GMW      -0.545000
@<TRIPOS>BOND
     1     1     2 ar  
     2     1     5 ar  
     3     1    49 1   
     4     2     3 ar  
     5     2    50 1   
     6     3     4 ar  
     7     3    17 1   
     8     4    15 ar  
     9     4    51 1   
    10     5    15 ar  
    11     5    16 1   
    12     6    20 1   
    13     6    21 1   
    14     6    52 1   
    15     6    53 1   
    16     7    18 1   
    17     7    22 1   
    18     7    54 1   
    19     7    55 1   
    20     8     9 ar  
    21     8    25 ar  
    22     8    26 1   
    23     9    10 ar  
    24     9    56 1   
    25    10    23 ar  
    26    10    57 1   
    27    11    26 2   
    28    11    27 1   
    29    11    39 1   
    30    12    13 1   
    31    12    27 1   
    32    12    86 2   
    33    13    14 2   
    34    13    16 1   
    35    14    26 1   
    36    14    58 1   
    37    16    59 1   
    38    17    18 1   
    39    17    19 2   
    40    18    20 1   
    41    20    60 1   
    42    20    61 1   
    43    21    22 1   
    44    22    62 1   
    45    22    63 1   
    46    23    24 ar  
    47    23    64 1   
    48    24    25 ar  
    49    24    28 1   
    50    25    40 1   
    51    27    48 1   
    52    28    29 1   
    53    28    31 1   
    54    29    32 2   
    55    29    34 1   
    56    30    31 2   
    57    30    33 1   
    58    30    65 1   
    59    33    34 ar  
    60    33    38 ar  
    61    34    35 ar  
    62    35    36 ar  
    63    35    42 1   
    64    36    37 ar  
    65    36    66 1   
    66    37    38 ar  
    67    37    43 1   
    68    38    67 1   
    69    39    41 1   
    70    39    68 1   
    71    39    69 1   
    72    40    41 1   
    73    40    70 1   
    74    40    71 1   
    75    41    47 1   
    76    41    72 1   
    77    43    44 1   
    78    43    45 1   
    79    43    46 1   
    80    44    73 1   
    81    44    74 1   
    82    44    75 1   
    83    45    76 1   
    84    45    77 1   
    85    45    78 1   
    86    46    79 1   
    87    46    80 1   
    88    46    81 1   
    89    47    82 1   
    90    48    83 1   
    91    48    84 1   
    92    48    85 1   
@<TRIPOS>SUBSTRUCTURE
     1 GMW         1 TEMP              0 ****  ****    0 ROOT
