@<TRIPOS>MOLECULE
GMW
   86    92     1     0     0
SMALL
No Charge or Current Charge


@<TRIPOS>ATOM
      1 C1          -5.6430    -0.1910    -0.4130 ca         1 GMW      -0.220000
      2 C2          -7.0200    -0.2590    -0.6600 ca         1 GMW      -0.011000
      3 C3          -7.8550    -0.7190     0.3780 ca         1 GMW      -0.268600
      4 C4          -7.2640    -1.1270     1.5850 ca         1 GMW       0.437900
      5 C6          -5.1670    -0.5780     0.8450 ca         1 GMW       0.651900
      6 C12        -10.7450     2.3470    -0.2280 c6         1 GMW       0.130100
      7 C15        -11.4190    -0.3250    -1.1120 c6         1 GMW       0.060000
      8 C16          0.8290    -1.3360    -0.1580 ca         1 GMW      -0.020800
      9 C17          0.6420    -2.7130    -0.4060 ca         1 GMW      -0.094000
     10 C18          1.7330    -3.5910    -0.4610 ca         1 GMW      -0.104000
     11 C23         -0.3270     0.8580    -0.6400 cc         1 GMW       0.112400
     12 C25         -2.6500     1.3090     0.0870 c          1 GMW       0.540200
     13 C26         -2.6750    -0.1040     0.5980 cc         1 GMW      -0.020200
     14 C27         -1.5640    -0.9070     0.5040 cd         1 GMW      -0.074000
     15 N5          -5.9340    -1.0580     1.8210 nb         1 GMW      -0.759000
     16 N7          -3.8430    -0.5960     1.1980 nu         1 GMW      -0.803900
     17 C8          -9.3390    -0.8660     0.2280 c          1 GMW       0.634700
     18 N9         -10.0160    -0.0300    -0.6890 n          1 GMW      -0.411800
     19 O10         -9.9310    -1.7560     0.8230 o          1 GMW      -0.605100
     20 C11         -9.6650     1.4180    -0.8460 c6         1 GMW       0.060000
     21 O13        -12.0520     2.0140    -0.7450 os         1 GMW      -0.447000
     22 C14        -12.4370     0.6500    -0.4670 c6         1 GMW       0.130100
     23 C19          3.0310    -3.1050    -0.2640 ca         1 GMW      -0.085000
     24 C20          3.2460    -1.7430     0.0090 ca         1 GMW       0.062600
     25 C21          2.1440    -0.8490     0.0820 ca         1 GMW      -0.047300
     26 C22         -0.3620    -0.4460    -0.1440 cd         1 GMW      -0.160200
     27 N24         -1.4290     1.7290    -0.4950 n          1 GMW      -0.253000
     28 N29          4.5940    -1.2970     0.2110 n          1 GMW      -0.086000
     29 C30          5.2820    -0.5890    -0.8110 c          1 GMW       0.569600
     30 C31          6.3080    -1.2480     1.7550 cc         1 GMW       0.357800
     31 N32          5.0620    -1.6470     1.4890 nd         1 GMW      -0.399300
     32 O33          4.7660    -0.3590    -1.8980 o          1 GMW      -0.512000
     33 C34          7.1520    -0.4960     0.8200 ca         1 GMW      -0.097900
     34 C35          6.6720    -0.1550    -0.4550 ca         1 GMW      -0.200600
     35 C36          7.5020     0.5700    -1.3330 ca         1 GMW       0.239000
     36 C37          8.7950     0.9480    -0.9420 ca         1 GMW      -0.167000
     37 C38          9.2980     0.6150     0.3370 ca         1 GMW      -0.001300
     38 C39          8.4510    -0.1120     1.2050 ca         1 GMW      -0.123000
     39 C40          0.8800     1.3030    -1.4600 c3         1 GMW      -0.053200
     40 C41          2.3430     0.6100     0.5210 c3         1 GMW      -0.072100
     41 C42          2.1350     1.6190    -0.6230 c3         1 GMW       0.182300
     42 F43          7.0820     0.9220    -2.5690 f          1 GMW      -0.148000
     43 C44         10.7220     1.0130     0.8110 c3         1 GMW      -0.006700
     44 C45         11.5270    -0.2700     1.1530 c3         1 GMW      -0.085100
     45 C46         11.5220     1.8060    -0.2610 c3         1 GMW      -0.085100
     46 C47         10.6100     1.9040     2.0780 c3         1 GMW      -0.085100
     47 O48          2.0380     2.9400    -0.0750 oh         1 GMW      -0.667000
     48 C49         -1.3580     3.1470    -0.9570 c3         1 GMW       0.055300
     49 H1          -4.9590     0.1420    -1.1850 ha         1 GMW       0.127000
     50 H2          -7.4160     0.0140    -1.6370 ha         1 GMW       0.118000
     51 H3          -7.8700    -1.5130     2.4040 h4         1 GMW       0.030100
     52 H4         -10.7510     2.2410     0.8660 h1         1 GMW       0.053950
     53 H5         -10.5190     3.3960    -0.4680 h1         1 GMW       0.053950
     54 H6         -11.4840    -0.2340    -2.2060 h1         1 GMW       0.064950
     55 H7         -11.6960    -1.3590    -0.8630 h1         1 GMW       0.064950
     56 H8          -0.3530    -3.1060    -0.5970 ha         1 GMW       0.121000
     57 H9           1.5720    -4.6470    -0.6700 ha         1 GMW       0.122000
     58 H10         -1.6010    -1.9070     0.9260 ha         1 GMW       0.199000
     59 H11         -3.7170    -1.1740     2.0260 hn         1 GMW       0.513000
     60 H12         -9.5560     1.6480    -1.9150 h1         1 GMW       0.064950
     61 H13         -8.7080     1.6490    -0.3610 h1         1 GMW       0.064950
     62 H14        -13.4420     0.4680    -0.8740 h1         1 GMW       0.053950
     63 H15        -12.4730     0.4940     0.6210 h1         1 GMW       0.053950
     64 H16          3.8760    -3.7880    -0.3150 ha         1 GMW       0.127000
     65 H17          6.6160    -1.5450     2.7480 h4         1 GMW       0.048800
     66 H18          9.3880     1.5040    -1.6600 ha         1 GMW       0.141000
     67 H19          8.8010    -0.3870     2.1970 ha         1 GMW       0.126000
     68 H20          1.1390     0.4910    -2.1500 hc         1 GMW       0.079200
     69 H21          0.6670     2.1420    -2.1310 hc         1 GMW       0.079200
     70 H22          1.6340     0.8330     1.3280 hc         1 GMW       0.061700
     71 H23          3.3300     0.7770     0.9670 hc         1 GMW       0.061700
     72 H24          3.0010     1.5660    -1.2970 h1         1 GMW       0.057700
     73 H25         11.5850    -0.9330     0.2810 hc         1 GMW       0.039922
     74 H26         12.5510    -0.0220     1.4580 hc         1 GMW       0.039922
     75 H27         11.0660    -0.8320     1.9730 hc         1 GMW       0.039922
     76 H28         11.0130     2.7420    -0.5230 hc         1 GMW       0.039922
     77 H29         12.5200     2.0690     0.1100 hc         1 GMW       0.039922
     78 H30         11.6560     1.2130    -1.1740 hc         1 GMW       0.039922
     79 H31         10.1380     1.3690     2.9100 hc         1 GMW       0.039922
     80 H32         11.6010     2.2310     2.4170 hc         1 GMW       0.039922
     81 H33         10.0120     2.7990     1.8690 hc         1 GMW       0.039922
     82 H34          2.9010     3.1430     0.3490 ho         1 GMW       0.450000
     83 H35         -2.1050     3.7780    -0.4610 h1         1 GMW       0.066033
     84 H36         -0.3780     3.5770    -0.7220 h1         1 GMW       0.066033
     85 H37         -1.5230     3.1900    -2.0400 h1         1 GMW       0.066033
     86 O28         -3.6140     2.0650     0.1800 o          1 GMW      -0.545000
@<TRIPOS>BOND
     1     1     2 ar  
     2     1     5 ar  
     3     1    49 1   
     4     2     3 ar  
     5     2    50 1   
     6     3     4 ar  
     7     3    17 1   
     8     4    15 ar  
     9     4    51 1   
    10     5    15 ar  
    11     5    16 1   
    12     6    20 1   
    13     6    21 1   
    14     6    52 1   
    15     6    53 1   
    16     7    18 1   
    17     7    22 1   
    18     7    54 1   
    19     7    55 1   
    20     8     9 ar  
    21     8    25 ar  
    22     8    26 1   
    23     9    10 ar  
    24     9    56 1   
    25    10    23 ar  
    26    10    57 1   
    27    11    26 2   
    28    11    27 1   
    29    11    39 1   
    30    12    13 1   
    31    12    27 1   
    32    12    86 2   
    33    13    14 2   
    34    13    16 1   
    35    14    26 1   
    36    14    58 1   
    37    16    59 1   
    38    17    18 1   
    39    17    19 2   
    40    18    20 1   
    41    20    60 1   
    42    20    61 1   
    43    21    22 1   
    44    22    62 1   
    45    22    63 1   
    46    23    24 ar  
    47    23    64 1   
    48    24    25 ar  
    49    24    28 1   
    50    25    40 1   
    51    27    48 1   
    52    28    29 1   
    53    28    31 1   
    54    29    32 2   
    55    29    34 1   
    56    30    31 2   
    57    30    33 1   
    58    30    65 1   
    59    33    34 ar  
    60    33    38 ar  
    61    34    35 ar  
    62    35    36 ar  
    63    35    42 1   
    64    36    37 ar  
    65    36    66 1   
    66    37    38 ar  
    67    37    43 1   
    68    38    67 1   
    69    39    41 1   
    70    39    68 1   
    71    39    69 1   
    72    40    41 1   
    73    40    70 1   
    74    40    71 1   
    75    41    47 1   
    76    41    72 1   
    77    43    44 1   
    78    43    45 1   
    79    43    46 1   
    80    44    73 1   
    81    44    74 1   
    82    44    75 1   
    83    45    76 1   
    84    45    77 1   
    85    45    78 1   
    86    46    79 1   
    87    46    80 1   
    88    46    81 1   
    89    47    82 1   
    90    48    83 1   
    91    48    84 1   
    92    48    85 1   
@<TRIPOS>SUBSTRUCTURE
     1 GMW         1 TEMP              0 ****  ****    0 ROOT
