@<TRIPOS>MOLECULE
GN0
   56    60     1     0     0
SMALL
No Charge or Current Charge


@<TRIPOS>ATOM
      1 C4          -2.7260    -0.0630    -1.1780 ca         1 GN0      -0.064500
      2 C5          -2.0130    -0.3850    -0.0020 ca         1 GN0      -0.124300
      3 C6          -2.7540    -0.6710     1.1690 ca         1 GN0      -0.064500
      4 C8          -0.4640    -0.3820    -0.0400 c6         1 GN0       0.271000
      5 C9           0.0230     1.0430    -0.3330 cc         1 GN0      -0.135300
      6 C10          0.1280     2.0510     0.5990 cd         1 GN0      -0.236000
      7 C12          0.7920     2.7910    -1.7020 cd         1 GN0      -0.247000
      8 C13          0.3890     1.4830    -1.6400 cc         1 GN0      -0.119000
      9 C3          -4.1310    -0.0440    -1.1900 ca         1 GN0      -0.165000
     10 C1          -4.1590    -0.6500     1.1500 ca         1 GN0      -0.165000
     11 C2          -4.8640    -0.3370    -0.0250 ca         1 GN0       0.311000
     12 N7          -6.2800    -0.3230    -0.0200 nh         1 GN0      -0.786400
     13 S11          0.7310     3.5580    -0.1110 ss         1 GN0       0.214000
     14 N14         -0.0390    -1.2920    -1.1120 ns         1 GN0      -0.508900
     15 C15          1.2440    -1.7470    -1.2890 c          1 GN0       0.596200
     16 C16          2.1720    -1.5150    -0.1380 ce         1 GN0      -0.277600
     17 C17          1.6890    -1.0960     1.0450 c2         1 GN0       0.225900
     18 C18          0.2070    -0.8910     1.2670 c6         1 GN0      -0.053200
     19 O19          2.4500    -0.8840     2.1290 oh         1 GN0      -0.513100
     20 O20          1.5700    -2.2990    -2.3270 o          1 GN0      -0.537000
     21 S21          3.8970    -1.8750    -0.4580 ss         1 GN0      -0.012600
     22 C22          4.6710    -0.2620    -0.3400 ca         1 GN0      -0.106000
     23 C23          4.0280     0.8620    -0.8940 ca         1 GN0      -0.103000
     24 C24          4.6160     2.1340    -0.7980 ca         1 GN0      -0.099000
     25 C25          5.8540     2.2910    -0.1520 ca         1 GN0      -0.109000
     26 C26          6.5030     1.1720     0.3980 ca         1 GN0      -0.093000
     27 C27          5.9160    -0.1020     0.3050 ca         1 GN0       0.125000
     28 Cl           6.7490    -1.4810     1.0200 cl         1 GN0      -0.190000
     29 C29         -7.0640    -0.5860    -1.2730 c6         1 GN0       0.161300
     30 C30         -8.5270    -1.0320    -0.9720 c6         1 GN0       0.147100
     31 O31         -9.1730    -0.1010    -0.0720 os         1 GN0      -0.443000
     32 C32         -8.4860     0.0100     1.1960 c6         1 GN0       0.147100
     33 C33         -7.0210     0.5010     0.9920 c6         1 GN0       0.161300
     34 H1          -2.1910     0.1840    -2.0930 ha         1 GN0       0.111000
     35 H2          -2.2630    -0.9110     2.1080 ha         1 GN0       0.111000
     36 H3          -0.1050     2.0210     1.6560 h4         1 GN0       0.152000
     37 H4           1.1170     3.3540    -2.5680 h4         1 GN0       0.154000
     38 H5           0.3520     0.8400    -2.5140 ha         1 GN0       0.141000
     39 H6          -4.6440     0.2160    -2.1100 ha         1 GN0       0.116500
     40 H7          -4.7040    -0.8890     2.0580 ha         1 GN0       0.116500
     41 H8          -0.6880    -1.4810    -1.8620 hn         1 GN0       0.319500
     42 H10          0.0260    -0.2100     2.1080 hc         1 GN0       0.085200
     43 H11         -0.2230    -1.8600     1.5500 hc         1 GN0       0.085200
     44 H12          3.0740     0.7520    -1.4010 ha         1 GN0       0.128000
     45 H13          4.1120     2.9980    -1.2270 ha         1 GN0       0.114000
     46 H14          6.3090     3.2760    -0.0790 ha         1 GN0       0.117000
     47 H15          7.4600     1.2910     0.8990 ha         1 GN0       0.128000
     48 H16         -7.0930     0.3210    -1.8940 h1         1 GN0       0.048700
     49 H17         -6.5790    -1.3760    -1.8660 h1         1 GN0       0.048700
     50 H18         -9.1000    -1.0860    -1.9080 h1         1 GN0       0.054450
     51 H19         -8.5250    -2.0330    -0.5160 h1         1 GN0       0.054450
     52 H20         -9.0290     0.7160     1.8400 h1         1 GN0       0.054450
     53 H21         -8.4840    -0.9710     1.6930 h1         1 GN0       0.054450
     54 H22         -6.5130     0.4770     1.9670 h1         1 GN0       0.048700
     55 H23         -7.0440     1.5520     0.6680 h1         1 GN0       0.048700
     56 H9           3.3760    -1.0350     1.8470 ho         1 GN0       0.500000
@<TRIPOS>BOND
     1     1     2 ar  
     2     1     9 ar  
     3     1    34 1   
     4     2     3 ar  
     5     2     4 1   
     6     3    10 ar  
     7     3    35 1   
     8     4     5 1   
     9     4    14 1   
    10     4    18 1   
    11     5     6 2   
    12     5     8 1   
    13     6    13 1   
    14     6    36 1   
    15     7     8 2   
    16     7    13 1   
    17     7    37 1   
    18     8    38 1   
    19     9    11 ar  
    20     9    39 1   
    21    10    11 ar  
    22    10    40 1   
    23    11    12 1   
    24    12    29 1   
    25    12    33 1   
    26    14    15 1   
    27    14    41 1   
    28    15    16 1   
    29    15    20 2   
    30    16    17 2   
    31    16    21 1   
    32    17    18 1   
    33    17    19 1   
    34    18    42 1   
    35    18    43 1   
    36    19    56 1   
    37    21    22 1   
    38    22    23 ar  
    39    22    27 ar  
    40    23    24 ar  
    41    23    44 1   
    42    24    25 ar  
    43    24    45 1   
    44    25    26 ar  
    45    25    46 1   
    46    26    27 ar  
    47    26    47 1   
    48    27    28 1   
    49    29    30 1   
    50    29    48 1   
    51    29    49 1   
    52    30    31 1   
    53    30    50 1   
    54    30    51 1   
    55    31    32 1   
    56    32    33 1   
    57    32    52 1   
    58    32    53 1   
    59    33    54 1   
    60    33    55 1   
@<TRIPOS>SUBSTRUCTURE
     1 GN0         1 TEMP              0 ****  ****    0 ROOT
