@<TRIPOS>MOLECULE
GN0
   56    60     1     0     0
SMALL
abcg2


@<TRIPOS>ATOM
      1 C4          -2.6540    -0.1990    -1.0600 ca         1 GN0      -0.064500
      2 C5          -2.0070    -0.4460     0.1470 ca         1 GN0      -0.124300
      3 C6          -2.8130    -0.6750     1.2580 ca         1 GN0      -0.064500
      4 C8          -0.4860    -0.4190     0.2150 c6         1 GN0       0.271000
      5 C9          -0.0070     0.9940    -0.1080 cc         1 GN0      -0.135300
      6 C10          0.1480     1.9940     0.8070 cd         1 GN0      -0.236000
      7 C12          0.6780     2.7440    -1.4750 cd         1 GN0      -0.247000
      8 C13          0.3030     1.4380    -1.4290 cc         1 GN0      -0.119000
      9 C3          -4.0340    -0.1840    -1.1640 ca         1 GN0      -0.165000
     10 C1          -4.1940    -0.6640     1.1690 ca         1 GN0      -0.165000
     11 C2          -4.8470    -0.4220    -0.0470 ca         1 GN0       0.311000
     12 N7          -6.2340    -0.4480    -0.1280 nh         1 GN0      -0.786400
     13 S11          0.6640     3.4560     0.0810 ss         1 GN0       0.214000
     14 N14          0.0460    -1.3660    -0.7580 ns         1 GN0      -0.508900
     15 C15          1.3630    -1.6900    -0.8200 c          1 GN0       0.596200
     16 C16          2.1460    -1.3750     0.3850 ce         1 GN0      -0.277600
     17 C17          1.5250    -1.0030     1.5310 c2         1 GN0       0.225900
     18 C18          0.0420    -0.8540     1.5800 c6         1 GN0      -0.053200
     19 O19          2.1330    -0.7860     2.6760 oh         1 GN0      -0.513100
     20 O20          1.8530    -2.2410    -1.7940 o          1 GN0      -0.537000
     21 S21          3.8660    -1.6920     0.3850 ss         1 GN0      -0.012600
     22 C22          4.5640    -0.1600    -0.1700 ca         1 GN0      -0.106000
     23 C23          3.8150     0.9880    -0.4070 ca         1 GN0      -0.103000
     24 C24          4.4310     2.1550    -0.8330 ca         1 GN0      -0.099000
     25 C25          5.8050     2.1960    -1.0230 ca         1 GN0      -0.109000
     26 C26          6.5660     1.0610    -0.7850 ca         1 GN0      -0.093000
     27 C27          5.9420    -0.1020    -0.3640 ca         1 GN0       0.125000
     28 CL           6.9010    -1.5150    -0.0680 cl         1 GN0      -0.190000
     29 C29         -6.8490    -0.2520    -1.4270 c6         1 GN0       0.161300
     30 C30         -8.3120    -0.6530    -1.3800 c6         1 GN0       0.147100
     31 O31         -9.0190     0.0340    -0.3740 os         1 GN0      -0.443000
     32 C32         -8.4430    -0.2190     0.8860 c6         1 GN0       0.147100
     33 C33         -6.9880     0.2030     0.9350 c6         1 GN0       0.161300
     34 H1          -2.0850     0.0140    -1.9580 ha         1 GN0       0.111000
     35 H2          -2.3810    -0.8740     2.2300 ha         1 GN0       0.111000
     36 H3          -0.0230     1.9640     1.8720 h4         1 GN0       0.152000
     37 H4           0.9690     3.3190    -2.3410 h4         1 GN0       0.154000
     38 H5           0.2690     0.8100    -2.3080 ha         1 GN0       0.141000
     39 H6          -4.4650     0.0370    -2.1300 ha         1 GN0       0.116500
     40 H7          -4.7620    -0.8720     2.0650 ha         1 GN0       0.116500
     41 H8          -0.4950    -1.5540    -1.5890 hn         1 GN0       0.319500
     42 H10         -0.2320    -0.1480     2.3630 hc         1 GN0       0.085200
     43 H11         -0.3870    -1.8220     1.8590 hc         1 GN0       0.085200
     44 H12          2.7430     0.9730    -0.2600 ha         1 GN0       0.128000
     45 H13          3.8280     3.0340    -1.0150 ha         1 GN0       0.114000
     46 H14          6.2880     3.1050    -1.3540 ha         1 GN0       0.117000
     47 H15          7.6380     1.0770    -0.9260 ha         1 GN0       0.128000
     48 H16         -6.7570     0.7900    -1.7680 h1         1 GN0       0.048700
     49 H17         -6.3600    -0.8840    -2.1690 h1         1 GN0       0.048700
     50 H18         -8.7830    -0.4170    -2.3360 h1         1 GN0       0.054450
     51 H19         -8.3850    -1.7390    -1.2260 h1         1 GN0       0.054450
     52 H20         -9.0110     0.3430     1.6280 h1         1 GN0       0.054450
     53 H21         -8.5210    -1.2860     1.1360 h1         1 GN0       0.054450
     54 H22         -6.5970    -0.0740     1.9110 h1         1 GN0       0.048700
     55 H23         -6.9120     1.2970     0.8500 h1         1 GN0       0.048700
     56 H9           3.0850    -0.9720     2.5890 ho         1 GN0       0.500000
@<TRIPOS>BOND
     1     1     2 ar  
     2     1     9 ar  
     3     1    34 1   
     4     2     3 ar  
     5     2     4 1   
     6     3    10 ar  
     7     3    35 1   
     8     4     5 1   
     9     4    14 1   
    10     4    18 1   
    11     5     6 2   
    12     5     8 1   
    13     6    13 1   
    14     6    36 1   
    15     7     8 2   
    16     7    13 1   
    17     7    37 1   
    18     8    38 1   
    19     9    11 ar  
    20     9    39 1   
    21    10    11 ar  
    22    10    40 1   
    23    11    12 1   
    24    12    29 1   
    25    12    33 1   
    26    14    15 1   
    27    14    41 1   
    28    15    16 1   
    29    15    20 2   
    30    16    17 2   
    31    16    21 1   
    32    17    18 1   
    33    17    19 1   
    34    18    42 1   
    35    18    43 1   
    36    19    56 1   
    37    21    22 1   
    38    22    23 ar  
    39    22    27 ar  
    40    23    24 ar  
    41    23    44 1   
    42    24    25 ar  
    43    24    45 1   
    44    25    26 ar  
    45    25    46 1   
    46    26    27 ar  
    47    26    47 1   
    48    27    28 1   
    49    29    30 1   
    50    29    48 1   
    51    29    49 1   
    52    30    31 1   
    53    30    50 1   
    54    30    51 1   
    55    31    32 1   
    56    32    33 1   
    57    32    52 1   
    58    32    53 1   
    59    33    54 1   
    60    33    55 1   
@<TRIPOS>SUBSTRUCTURE
     1 GN0         1 TEMP              0 ****  ****    0 ROOT
