@<TRIPOS>MOLECULE
GN2
   56    60     1     0     0
SMALL
No Charge or Current Charge


@<TRIPOS>ATOM
      1 C4          -1.1030    -0.7500     1.2370 ca         1 GN2      -0.066500
      2 C5          -1.5680    -0.2040     0.0150 ca         1 GN2      -0.149300
      3 C6          -1.3000    -0.9220    -1.1720 ca         1 GN2      -0.066500
      4 C8          -2.3690     1.1320    -0.0350 c6         1 GN2       0.269000
      5 C9          -3.8570     0.8300    -0.1730 cc         1 GN2      -0.111300
      6 C10         -4.6810     1.1920    -1.2150 cd         1 GN2      -0.237000
      7 C12         -5.8720    -0.1170     0.5650 cd         1 GN2      -0.241000
      8 C13         -4.5430     0.0850     0.8260 cc         1 GN2      -0.121000
      9 C3          -0.3480    -1.9350     1.2570 ca         1 GN2      -0.164000
     10 C1          -0.5420    -2.1050    -1.1440 ca         1 GN2      -0.164000
     11 C2          -0.0440    -2.6170     0.0650 ca         1 GN2       0.301000
     12 N7           0.7340    -3.8010     0.0660 nh         1 GN2      -0.785400
     13 S11         -6.3420     0.6240    -0.9720 ss         1 GN2       0.224000
     14 N14         -2.1510     1.8840     1.2070 ns         1 GN2      -0.507900
     15 C15         -0.9830     2.5360     1.5190 c          1 GN2       0.594200
     16 C16         -0.0370     2.7210     0.3740 ce         1 GN2      -0.278600
     17 C17         -0.4470     2.4850    -0.8860 c2         1 GN2       0.227900
     18 C18         -1.8690     2.0560    -1.1810 c6         1 GN2      -0.053200
     19 O19          0.3290     2.6370    -1.9680 oh         1 GN2      -0.512100
     20 O20         -0.7640     2.9170     2.6560 o          1 GN2      -0.536000
     21 S21          1.6060     3.2750     0.8130 ss         1 GN2      -0.014600
     22 C22          2.5840     1.8180     0.4620 ca         1 GN2      -0.105000
     23 C23          2.2590     0.6050     1.0980 ca         1 GN2      -0.103000
     24 C24          2.9950    -0.5600     0.8210 ca         1 GN2      -0.100000
     25 C25          4.0600    -0.5180    -0.0940 ca         1 GN2      -0.109000
     26 C26          4.3890     0.6920    -0.7320 ca         1 GN2      -0.094000
     27 C27          3.6540     1.8580    -0.4560 ca         1 GN2       0.126000
     28 Cl           4.0690     3.3520    -1.2930 cl         1 GN2      -0.189000
     29 C29          1.9360    -3.9130    -0.8260 c6         1 GN2       0.158800
     30 C30          2.3430    -5.3950    -1.0860 c6         1 GN2       0.147600
     31 O31          2.4820    -6.1160     0.1610 os         1 GN2      -0.443000
     32 C32          1.2570    -6.1330     0.9290 c6         1 GN2       0.147600
     33 C33          0.8000    -4.6840     1.2770 c6         1 GN2       0.158800
     34 H1          -1.3080    -0.2630     2.1860 ha         1 GN2       0.115500
     35 H2          -1.6780    -0.5780    -2.1300 ha         1 GN2       0.115500
     36 H3          -4.4400     1.7490    -2.1120 h4         1 GN2       0.150000
     37 H4          -6.6020    -0.6490     1.1610 h4         1 GN2       0.154000
     38 H5          -4.0440    -0.2940     1.7140 ha         1 GN2       0.139000
     39 H6           0.0130    -2.3080     2.2100 ha         1 GN2       0.117500
     40 H7          -0.3520    -2.6340    -2.0730 ha         1 GN2       0.117500
     41 H8          -2.8270     1.7850     1.9510 hn         1 GN2       0.320500
     42 H10         -1.9440     1.5790    -2.1650 hc         1 GN2       0.085700
     43 H11         -2.4930     2.9570    -1.2300 hc         1 GN2       0.085700
     44 H12          1.4350     0.5650     1.8060 ha         1 GN2       0.130000
     45 H13          2.7370    -1.4950     1.3140 ha         1 GN2       0.113000
     46 H14          4.6300    -1.4200    -0.3090 ha         1 GN2       0.118000
     47 H15          5.2100     0.7250    -1.4430 ha         1 GN2       0.128000
     48 H16          1.7510    -3.4320    -1.7970 h1         1 GN2       0.047950
     49 H17          2.7870    -3.3910    -0.3660 h1         1 GN2       0.047950
     50 H18          1.5800    -5.8880    -1.7050 h1         1 GN2       0.054200
     51 H19          3.2970    -5.4280    -1.6310 h1         1 GN2       0.054200
     52 H20          0.4730    -6.6400     0.3480 h1         1 GN2       0.054200
     53 H21          1.4180    -6.7050     1.8540 h1         1 GN2       0.054200
     54 H22          1.5020    -4.2600     2.0110 h1         1 GN2       0.047950
     55 H23         -0.1860    -4.7410     1.7610 h1         1 GN2       0.047950
     56 H9           1.2110     2.9040    -1.6360 ho         1 GN2       0.500000
@<TRIPOS>BOND
     1     1     2 ar  
     2     1     9 ar  
     3     1    34 1   
     4     2     3 ar  
     5     2     4 1   
     6     3    10 ar  
     7     3    35 1   
     8     4     5 1   
     9     4    14 1   
    10     4    18 1   
    11     5     6 2   
    12     5     8 1   
    13     6    13 1   
    14     6    36 1   
    15     7     8 2   
    16     7    13 1   
    17     7    37 1   
    18     8    38 1   
    19     9    11 ar  
    20     9    39 1   
    21    10    11 ar  
    22    10    40 1   
    23    11    12 1   
    24    12    29 1   
    25    12    33 1   
    26    14    15 1   
    27    14    41 1   
    28    15    16 1   
    29    15    20 2   
    30    16    17 2   
    31    16    21 1   
    32    17    18 1   
    33    17    19 1   
    34    18    42 1   
    35    18    43 1   
    36    19    56 1   
    37    21    22 1   
    38    22    23 ar  
    39    22    27 ar  
    40    23    24 ar  
    41    23    44 1   
    42    24    25 ar  
    43    24    45 1   
    44    25    26 ar  
    45    25    46 1   
    46    26    27 ar  
    47    26    47 1   
    48    27    28 1   
    49    29    30 1   
    50    29    48 1   
    51    29    49 1   
    52    30    31 1   
    53    30    50 1   
    54    30    51 1   
    55    31    32 1   
    56    32    33 1   
    57    32    52 1   
    58    32    53 1   
    59    33    54 1   
    60    33    55 1   
@<TRIPOS>SUBSTRUCTURE
     1 GN2         1 TEMP              0 ****  ****    0 ROOT
