@<TRIPOS>MOLECULE
GN2
   56    60     1     0     0
SMALL
abcg2


@<TRIPOS>ATOM
      1 C4          -0.9540    -0.7430     1.0760 ca         1 GN2      -0.066500
      2 C5          -1.5800    -0.2730    -0.0690 ca         1 GN2      -0.149300
      3 C6          -1.5300    -1.0880    -1.1990 ca         1 GN2      -0.066500
      4 C8          -2.3410     1.0580    -0.0880 c6         1 GN2       0.269000
      5 C9          -3.8200     0.7590     0.0100 cc         1 GN2      -0.111300
      6 C10         -4.7600     1.0690    -0.9260 cd         1 GN2      -0.237000
      7 C12         -5.7300    -0.1040     1.0080 cd         1 GN2      -0.241000
      8 C13         -4.3880     0.0730     1.1270 cc         1 GN2      -0.121000
      9 C3          -0.2650    -1.9490     1.0910 ca         1 GN2      -0.164000
     10 C1          -0.8490    -2.2880    -1.1990 ca         1 GN2      -0.164000
     11 C2          -0.1820    -2.7490    -0.0520 ca         1 GN2       0.301000
     12 N7           0.4930    -3.9660    -0.0710 nh         1 GN2      -0.785400
     13 S11         -6.3220     0.5420    -0.4630 ss         1 GN2       0.224000
     14 N14         -1.9680     1.9000     1.0400 ns         1 GN2      -0.507900
     15 C15         -0.7620     2.5190     1.1290 c          1 GN2       0.594200
     16 C16         -0.0040     2.6140    -0.1300 ce         1 GN2      -0.278600
     17 C17         -0.5940     2.3120    -1.3120 c2         1 GN2       0.227900
     18 C18         -2.0120     1.8560    -1.3500 c6         1 GN2      -0.053200
     19 O19         -0.0220     2.4300    -2.4900 oh         1 GN2      -0.512100
     20 O20         -0.3480     2.9900     2.1760 o          1 GN2      -0.536000
     21 S21          1.5940     3.3250    -0.1020 ss         1 GN2      -0.014600
     22 C22          2.6540     1.9450     0.2360 ca         1 GN2      -0.105000
     23 C23          2.2180     0.6250     0.2520 ca         1 GN2      -0.103000
     24 C24          3.1040    -0.4060     0.5250 ca         1 GN2      -0.100000
     25 C25          4.4420    -0.1360     0.7740 ca         1 GN2      -0.109000
     26 C26          4.8940     1.1750     0.7510 ca         1 GN2      -0.094000
     27 C27          4.0000     2.2000     0.4840 ca         1 GN2       0.126000
     28 CL           4.5760     3.8340     0.4550 cl         1 GN2      -0.189000
     29 C29          1.3460    -4.2440    -1.2190 c6         1 GN2       0.158800
     30 C30          1.7230    -5.7110    -1.2530 c6         1 GN2       0.147600
     31 O31          2.3390    -6.1180    -0.0540 os         1 GN2      -0.443000
     32 C32          1.4830    -5.8920     1.0400 c6         1 GN2       0.147600
     33 C33          1.0890    -4.4310     1.1660 c6         1 GN2       0.158800
     34 H1          -0.9640    -0.1620     1.9890 ha         1 GN2       0.115500
     35 H2          -2.0430    -0.8000    -2.1100 ha         1 GN2       0.115500
     36 H3          -4.6280     1.5760    -1.8690 h4         1 GN2       0.150000
     37 H4          -6.3970    -0.5870     1.7050 h4         1 GN2       0.154000
     38 H5          -3.8220    -0.2810     1.9780 ha         1 GN2       0.139000
     39 H6           0.2200    -2.2400     2.0110 ha         1 GN2       0.117500
     40 H7          -0.8570    -2.8830    -2.1020 ha         1 GN2       0.117500
     41 H8          -2.4610     1.7720     1.9130 hn         1 GN2       0.320500
     42 H10         -2.2000     1.2830    -2.2560 hc         1 GN2       0.085700
     43 H11         -2.6480     2.7460    -1.3960 hc         1 GN2       0.085700
     44 H12          1.1790     0.3970     0.0550 ha         1 GN2       0.130000
     45 H13          2.7410    -1.4250     0.5400 ha         1 GN2       0.113000
     46 H14          5.1360    -0.9380     0.9850 ha         1 GN2       0.118000
     47 H15          5.9340     1.4040     0.9410 ha         1 GN2       0.128000
     48 H16          0.8330    -4.0080    -2.1490 h1         1 GN2       0.047950
     49 H17          2.2560    -3.6240    -1.1850 h1         1 GN2       0.047950
     50 H18          0.8230    -6.3110    -1.4490 h1         1 GN2       0.054200
     51 H19          2.4300    -5.8880    -2.0640 h1         1 GN2       0.054200
     52 H20          0.5740    -6.5030     0.9510 h1         1 GN2       0.054200
     53 H21          2.0090    -6.2050     1.9430 h1         1 GN2       0.054200
     54 H22          1.9690    -3.8320     1.4500 h1         1 GN2       0.047950
     55 H23          0.3660    -4.3530     1.9790 h1         1 GN2       0.047950
     56 H9           0.8740     2.7990    -2.3940 ho         1 GN2       0.500000
@<TRIPOS>BOND
     1     1     2 ar  
     2     1     9 ar  
     3     1    34 1   
     4     2     3 ar  
     5     2     4 1   
     6     3    10 ar  
     7     3    35 1   
     8     4     5 1   
     9     4    14 1   
    10     4    18 1   
    11     5     6 2   
    12     5     8 1   
    13     6    13 1   
    14     6    36 1   
    15     7     8 2   
    16     7    13 1   
    17     7    37 1   
    18     8    38 1   
    19     9    11 ar  
    20     9    39 1   
    21    10    11 ar  
    22    10    40 1   
    23    11    12 1   
    24    12    29 1   
    25    12    33 1   
    26    14    15 1   
    27    14    41 1   
    28    15    16 1   
    29    15    20 2   
    30    16    17 2   
    31    16    21 1   
    32    17    18 1   
    33    17    19 1   
    34    18    42 1   
    35    18    43 1   
    36    19    56 1   
    37    21    22 1   
    38    22    23 ar  
    39    22    27 ar  
    40    23    24 ar  
    41    23    44 1   
    42    24    25 ar  
    43    24    45 1   
    44    25    26 ar  
    45    25    46 1   
    46    26    27 ar  
    47    26    47 1   
    48    27    28 1   
    49    29    30 1   
    50    29    48 1   
    51    29    49 1   
    52    30    31 1   
    53    30    50 1   
    54    30    51 1   
    55    31    32 1   
    56    32    33 1   
    57    32    52 1   
    58    32    53 1   
    59    33    54 1   
    60    33    55 1   
@<TRIPOS>SUBSTRUCTURE
     1 GN2         1 TEMP              0 ****  ****    0 ROOT
