@<TRIPOS>MOLECULE
GN5
   40    42     1     0     0
SMALL
No Charge or Current Charge


@<TRIPOS>ATOM
      1 CAA          4.4930    -1.7040     1.1440 c3         1 GN5      -0.083433
      2 CAB          4.4550    -0.4080     0.2910 c3         1 GN5      -0.002700
      3 CAC          4.8670     0.8020     1.1730 c3         1 GN5      -0.083433
      4 CAD          5.5070    -0.5520    -0.8450 c3         1 GN5      -0.083433
      5 CAE          3.0120    -0.1860    -0.2410 ca         1 GN5      -0.049300
      6 CAJ          1.9460    -0.0370     0.6770 ca         1 GN5      -0.108500
      7 CAI          0.6270     0.1640     0.2370 ca         1 GN5      -0.090000
      8 CAF          2.7040    -0.1260    -1.6220 ca         1 GN5      -0.108500
      9 CAG          1.3840     0.0760    -2.0620 ca         1 GN5      -0.090000
     10 CAH          0.3330     0.2240    -1.1390 ca         1 GN5      -0.167300
     11 CAK         -1.0960     0.4440    -1.6430 c6         1 GN5       0.459200
     12 NAL         -1.6470     1.6710    -1.0940 ns         1 GN5      -0.508900
     13 CAM         -2.5170     1.7840    -0.0460 c          1 GN5       0.594600
     14 OAN         -2.8350     2.8790     0.3870 o          1 GN5      -0.558000
     15 CAO         -3.0500     0.5220     0.5100 ca         1 GN5      -0.267600
     16 CAU         -3.8720     0.4590     1.6460 ca         1 GN5       0.019000
     17 CAT         -4.3020    -0.8120     2.0590 ca         1 GN5      -0.228000
     18 CAS         -3.9030    -1.9440     1.3280 ca         1 GN5       0.402900
     19 NAR         -3.1150    -1.8690     0.2310 nb         1 GN5      -0.743000
     20 CAP         -2.7170    -0.6540    -0.1370 ca         1 GN5       0.623900
     21 NAQ         -1.9550    -0.6540    -1.2530 nu         1 GN5      -0.908100
     22 HAA1         3.8390    -1.6320     2.0210 hc         1 GN5       0.036811
     23 HAA2         4.1680    -2.5670     0.5510 hc         1 GN5       0.036811
     24 HAA3         5.5090    -1.9060     1.5070 hc         1 GN5       0.036811
     25 HAC1         5.8960     0.6900     1.5360 hc         1 GN5       0.036811
     26 HAC2         4.8100     1.7350     0.5990 hc         1 GN5       0.036811
     27 HAC3         4.2180     0.9050     2.0490 hc         1 GN5       0.036811
     28 HAD1         5.2810    -1.4120    -1.4870 hc         1 GN5       0.036811
     29 HAD2         5.5440     0.3500    -1.4670 hc         1 GN5       0.036811
     30 HAD3         6.5110    -0.7060    -0.4300 hc         1 GN5       0.036811
     31 HAJ          2.1320    -0.0770     1.7470 ha         1 GN5       0.116500
     32 HAF          3.4730    -0.2330    -2.3800 ha         1 GN5       0.116500
     33 HAI         -0.1650     0.2740     0.9740 ha         1 GN5       0.115000
     34 HAG          1.1820     0.1170    -3.1310 ha         1 GN5       0.115000
     35 HAK         -1.0690     0.5380    -2.7420 h2         1 GN5       0.076700
     36 HAL         -1.2930     2.5410    -1.4650 hn         1 GN5       0.327500
     37 HAQ         -1.6750    -1.5890    -1.5250 hn         1 GN5       0.497000
     38 HAU         -4.1640     1.3560     2.1900 ha         1 GN5       0.138000
     39 HAT         -4.9380    -0.9260     2.9320 ha         1 GN5       0.129000
     40 HAS         -4.2250    -2.9410     1.6270 h4         1 GN5       0.018100
@<TRIPOS>BOND
     1     1     2 1   
     2     1    22 1   
     3     1    23 1   
     4     1    24 1   
     5     2     3 1   
     6     2     4 1   
     7     2     5 1   
     8     3    25 1   
     9     3    26 1   
    10     3    27 1   
    11     4    28 1   
    12     4    29 1   
    13     4    30 1   
    14     5     6 ar  
    15     5     8 ar  
    16     6     7 ar  
    17     6    31 1   
    18     7    10 ar  
    19     7    33 1   
    20     8     9 ar  
    21     8    32 1   
    22     9    10 ar  
    23     9    34 1   
    24    10    11 1   
    25    11    12 1   
    26    11    21 1   
    27    11    35 1   
    28    12    13 1   
    29    12    36 1   
    30    13    14 2   
    31    13    15 1   
    32    15    16 ar  
    33    15    20 ar  
    34    16    17 ar  
    35    16    38 1   
    36    17    18 ar  
    37    17    39 1   
    38    18    19 ar  
    39    18    40 1   
    40    19    20 ar  
    41    20    21 1   
    42    21    37 1   
@<TRIPOS>SUBSTRUCTURE
     1 GN5         1 TEMP              0 ****  ****    0 ROOT
