@<TRIPOS>MOLECULE
GN5
   40    42     1     0     0
SMALL
bcc


@<TRIPOS>ATOM
      1 CAA          4.0650    -1.3400     1.6190 c3         1 GN5      -0.083433
      2 CAB          4.2410    -0.4710     0.3660 c3         1 GN5      -0.002700
      3 CAC          5.0210     0.8010     0.7230 c3         1 GN5      -0.083433
      4 CAD          5.0570    -1.2680    -0.6520 c3         1 GN5      -0.083433
      5 CAE          2.8660    -0.0840    -0.1670 ca         1 GN5      -0.049300
      6 CAJ          1.9910     0.6460     0.6370 ca         1 GN5      -0.126500
      7 CAI          0.7270     1.0130     0.1970 ca         1 GN5      -0.108000
      8 CAF          2.4240    -0.4230    -1.4440 ca         1 GN5      -0.126500
      9 CAG          1.1610    -0.0580    -1.8880 ca         1 GN5      -0.108000
     10 CAH          0.2900     0.6550    -1.0730 ca         1 GN5      -0.167300
     11 CAK         -1.1030     0.9680    -1.5990 c6         1 GN5       0.459200
     12 NAL         -1.7930     1.9860    -0.8440 ns         1 GN5      -0.575900
     13 CAM         -2.4880     1.7390     0.2890 c          1 GN5       0.737100
     14 OAN         -2.8900     2.6270     1.0270 o          1 GN5      -0.633500
     15 CAO         -2.7660     0.3100     0.5340 ca         1 GN5      -0.332900
     16 CAU         -3.3670    -0.1270     1.7020 ca         1 GN5       0.001000
     17 CAT         -3.6880    -1.4690     1.8390 ca         1 GN5      -0.311300
     18 CAS         -3.4080    -2.3110     0.7710 ca         1 GN5       0.468200
     19 NAR         -2.8320    -1.9190    -0.3580 nb         1 GN5      -0.743000
     20 CAP         -2.5040    -0.6360    -0.4730 ca         1 GN5       0.689200
     21 NAQ         -1.9410    -0.2130    -1.6350 nu         1 GN5      -0.852900
     22 HAA1         3.5240    -0.8180     2.4090 hc         1 GN5       0.036811
     23 HAA2         3.5160    -2.2540     1.3860 hc         1 GN5       0.036811
     24 HAA3         5.0390    -1.6300     2.0200 hc         1 GN5       0.036811
     25 HAC1         6.0110     0.5450     1.1060 hc         1 GN5       0.036811
     26 HAC2         5.1570     1.4360    -0.1550 hc         1 GN5       0.036811
     27 HAC3         4.5170     1.3930     1.4870 hc         1 GN5       0.036811
     28 HAD1         4.5640    -2.2000    -0.9330 hc         1 GN5       0.036811
     29 HAD2         5.2520    -0.6990    -1.5640 hc         1 GN5       0.036811
     30 HAD3         6.0240    -1.5280    -0.2180 hc         1 GN5       0.036811
     31 HAJ          2.2930     0.9460     1.6330 ha         1 GN5       0.134500
     32 HAF          3.0610    -0.9800    -2.1170 ha         1 GN5       0.134500
     33 HAI          0.1000     1.5960     0.8590 ha         1 GN5       0.133000
     34 HAG          0.8580    -0.3360    -2.8920 ha         1 GN5       0.133000
     35 HAK         -1.0120     1.3290    -2.6240 h2         1 GN5       0.076700
     36 HAL         -1.5550     2.9460    -1.0440 hn         1 GN5       0.327500
     37 HAQ         -1.6580    -0.9400    -2.2760 hn         1 GN5       0.441800
     38 HAU         -3.5860     0.5790     2.4920 ha         1 GN5       0.156000
     39 HAT         -4.1520    -1.8530     2.7350 ha         1 GN5       0.147000
     40 HAS         -3.6620    -3.3630     0.8320 h4         1 GN5       0.018100
@<TRIPOS>BOND
     1     1     2 1   
     2     1    22 1   
     3     1    23 1   
     4     1    24 1   
     5     2     3 1   
     6     2     4 1   
     7     2     5 1   
     8     3    25 1   
     9     3    26 1   
    10     3    27 1   
    11     4    28 1   
    12     4    29 1   
    13     4    30 1   
    14     5     6 ar  
    15     5     8 ar  
    16     6     7 ar  
    17     6    31 1   
    18     7    10 ar  
    19     7    33 1   
    20     8     9 ar  
    21     8    32 1   
    22     9    10 ar  
    23     9    34 1   
    24    10    11 1   
    25    11    12 1   
    26    11    21 1   
    27    11    35 1   
    28    12    13 1   
    29    12    36 1   
    30    13    14 2   
    31    13    15 1   
    32    15    16 ar  
    33    15    20 ar  
    34    16    17 ar  
    35    16    38 1   
    36    17    18 ar  
    37    17    39 1   
    38    18    19 ar  
    39    18    40 1   
    40    19    20 ar  
    41    20    21 1   
    42    21    37 1   
@<TRIPOS>SUBSTRUCTURE
     1 GN5         1 TEMP              0 ****  ****    0 ROOT
