@<TRIPOS>MOLECULE
GN6
   26    28     1     0     0
SMALL
abcg2


@<TRIPOS>ATOM
      1 N01          1.7010     0.1890    -0.1930 na         1 GN6       0.310400
      2 C02          3.0040     0.2900     0.2230 cc         1 GN6      -0.033000
      3 N03          3.6400    -0.8340    -0.0790 nd         1 GN6      -0.445300
      4 C04          2.6870    -1.5750    -0.6720 cd         1 GN6       0.734200
      5 N05          1.4920    -1.0040    -0.7710 nc         1 GN6      -0.652100
      6 C06          0.7760     1.1650    -0.0300 cc         1 GN6       0.006000
      7 C07          1.1790     2.3300     0.5620 cd         1 GN6      -0.154000
      8 C08          2.5100     2.4870     0.9960 cd         1 GN6      -0.076000
      9 C09          3.4240     1.4790     0.8390 cc         1 GN6      -0.101000
     10 N10          2.9380    -2.8060    -1.1900 nv         1 GN6      -0.981200
     11 C11         -0.5960     0.9220    -0.5090 ca         1 GN6      -0.032000
     12 C12         -1.4260    -0.0050     0.1190 ca         1 GN6       0.155000
     13 C13         -2.7230    -0.1990    -0.3400 ca         1 GN6       0.111000
     14 C14         -3.2000     0.5310    -1.4190 ca         1 GN6      -0.082000
     15 C15         -2.3810     1.4610    -2.0360 ca         1 GN6      -0.105000
     16 C16         -1.0860     1.6550    -1.5830 ca         1 GN6      -0.074000
     17 CL17        -0.8500    -0.8760     1.4830 cl         1 GN6      -0.155000
     18 CL18        -3.7580    -1.3400     0.4290 cl         1 GN6      -0.168000
     19 H1           0.4560     3.1200     0.7040 ha         1 GN6       0.137000
     20 H2           2.8070     3.4140     1.4660 ha         1 GN6       0.127000
     21 H3           4.4480     1.5740     1.1690 ha         1 GN6       0.147000
     22 H4           3.7190    -3.2940    -0.7830 hn         1 GN6       0.471500
     23 H5           2.1340    -3.3950    -1.3330 hn         1 GN6       0.471500
     24 H6          -4.2120     0.3720    -1.7660 ha         1 GN6       0.134000
     25 H7          -2.7560     2.0310    -2.8750 ha         1 GN6       0.126000
     26 H8          -0.4400     2.3750    -2.0670 ha         1 GN6       0.127000
@<TRIPOS>BOND
     1     1     2 1   
     2     1     5 1   
     3     1     6 1   
     4     2     3 2   
     5     2     9 1   
     6     3     4 1   
     7     4     5 2   
     8     4    10 1   
     9     6     7 2   
    10     6    11 1   
    11     7     8 1   
    12     7    19 1   
    13     8     9 2   
    14     8    20 1   
    15     9    21 1   
    16    10    22 1   
    17    10    23 1   
    18    11    12 ar  
    19    11    16 ar  
    20    12    13 ar  
    21    12    17 1   
    22    13    14 ar  
    23    13    18 1   
    24    14    15 ar  
    25    14    24 1   
    26    15    16 ar  
    27    15    25 1   
    28    16    26 1   
@<TRIPOS>SUBSTRUCTURE
     1 GN6         1 TEMP              0 ****  ****    0 ROOT
