@<TRIPOS>MOLECULE
GN6
   26    28     1     0     0
SMALL
No Charge or Current Charge


@<TRIPOS>ATOM
      1 N01          1.7660     0.0650    -0.2250 na         1 GN6       0.310400
      2 C02          3.0460     0.2740     0.2110 cc         1 GN6      -0.033000
      3 N03          3.7380    -0.8110    -0.0660 nd         1 GN6      -0.445300
      4 C04          2.7970    -1.6030    -0.6810 cd         1 GN6       0.734200
      5 N05          1.5810    -1.1360    -0.8180 nc         1 GN6      -0.652100
      6 C06          0.7690     1.0440    -0.0930 cc         1 GN6       0.006000
      7 C07          1.1490     2.2450     0.5090 cd         1 GN6      -0.154000
      8 C08          2.4930     2.4830     0.9820 cd         1 GN6      -0.076000
      9 C09          3.4360     1.4920     0.8310 cc         1 GN6      -0.101000
     10 N10          3.0880    -2.8190    -1.1260 nv         1 GN6      -0.981200
     11 C11         -0.6220     0.8910    -0.5180 ca         1 GN6      -0.032000
     12 C12         -1.4940    -0.0200     0.1230 ca         1 GN6       0.155000
     13 C13         -2.8290    -0.1450    -0.3210 ca         1 GN6       0.111000
     14 C14         -3.2930     0.6350    -1.3930 ca         1 GN6      -0.082000
     15 C15         -2.4310     1.5480    -2.0230 ca         1 GN6      -0.105000
     16 C16         -1.1030     1.6770    -1.5850 ca         1 GN6      -0.074000
     17 Cl17        -0.9350    -0.9690     1.5090 cl         1 GN6      -0.155000
     18 Cl18        -3.9470    -1.2680     0.4570 cl         1 GN6      -0.168000
     19 H1           0.4080     3.0290     0.6350 ha         1 GN6       0.137000
     20 H2           2.7560     3.4270     1.4490 ha         1 GN6       0.127000
     21 H3           4.4590     1.6250     1.1670 ha         1 GN6       0.147000
     22 H4           3.9130    -3.2460    -0.7270 hn         1 GN6       0.471500
     23 H5           2.2950    -3.4250    -1.2880 hn         1 GN6       0.471500
     24 H6          -4.3210     0.5360    -1.7310 ha         1 GN6       0.134000
     25 H7          -2.7920     2.1560    -2.8510 ha         1 GN6       0.126000
     26 H8          -0.4390     2.3830    -2.0800 ha         1 GN6       0.127000
@<TRIPOS>BOND
     1     1     2 1   
     2     1     5 1   
     3     1     6 1   
     4     2     3 2   
     5     2     9 1   
     6     3     4 1   
     7     4     5 2   
     8     4    10 1   
     9     6     7 2   
    10     6    11 1   
    11     7     8 1   
    12     7    19 1   
    13     8     9 2   
    14     8    20 1   
    15     9    21 1   
    16    10    22 1   
    17    10    23 1   
    18    11    12 ar  
    19    11    16 ar  
    20    12    13 ar  
    21    12    17 1   
    22    13    14 ar  
    23    13    18 1   
    24    14    15 ar  
    25    14    24 1   
    26    15    16 ar  
    27    15    25 1   
    28    16    26 1   
@<TRIPOS>SUBSTRUCTURE
     1 GN6         1 TEMP              0 ****  ****    0 ROOT
