@<TRIPOS>MOLECULE
GN8
   37    39     1     0     0
SMALL
bcc


@<TRIPOS>ATOM
      1 OAA          3.0070    -1.7130     1.9950 o          1 GN8      -0.541500
      2 CAU          1.8850    -1.9820     2.3370 c          1 GN8       0.709700
      3 CAW          0.6380    -1.4340     1.7600 cc         1 GN8      -0.138600
      4 CAF          0.6450    -0.4980     0.8050 cf         1 GN8      -0.006200
      5 CAR         -0.5340     0.0660     0.1540 ca         1 GN8      -0.195800
      6 CAQ         -0.5830     1.4510    -0.0970 ca         1 GN8       0.238100
      7 OAC          0.3670     2.2810     0.3180 oh         1 GN8      -0.450100
      8 CAT         -1.7030     1.9560    -0.7700 ca         1 GN8      -0.224200
      9 NAY         -1.8130     3.3700    -1.0690 no         1 GN8       0.323200
     10 OAD         -0.8040     3.9880    -1.3060 o          1 GN8      -0.197000
     11 OAB         -2.9240     3.8500    -1.0870 o          1 GN8      -0.197000
     12 CAN         -2.7490     1.1320    -1.1630 ca         1 GN8      -0.015000
     13 CAJ         -2.6870    -0.2250    -0.9170 ca         1 GN8      -0.175000
     14 CAK         -1.5840    -0.7470    -0.2620 ca         1 GN8      -0.027000
     15 SAP         -0.7450    -2.1370     2.5640 ss         1 GN8      -0.040200
     16 CAV          0.2680    -3.0770     3.6280 cs         1 GN8       0.391000
     17 SAE         -0.3780    -4.0580     4.7630 s          1 GN8      -0.395400
     18 NAX          1.5850    -2.8650     3.3650 n          1 GN8      -0.433400
     19 CAO          2.6690    -3.5200     4.0930 c3         1 GN8       0.145300
     20 CAS          3.2900    -4.6350     3.2950 ca         1 GN8      -0.120300
     21 CAL          4.6110    -4.5410     2.8720 ca         1 GN8      -0.103500
     22 CAM          2.5550    -5.7740     2.9710 ca         1 GN8      -0.103500
     23 CAI          3.1330    -6.7960     2.2330 ca         1 GN8      -0.131500
     24 CAG          4.4550    -6.6970     1.8170 ca         1 GN8      -0.114000
     25 CAH          5.1940    -5.5680     2.1410 ca         1 GN8      -0.131500
     26 HAC          0.9760     1.8500     0.9310 ho         1 GN8       0.448000
     27 HAK         -1.5200    -1.8170    -0.1090 ha         1 GN8       0.152000
     28 HAJ         -3.4850    -0.8740    -1.2480 ha         1 GN8       0.156000
     29 HAN         -3.6030     1.5510    -1.6750 ha         1 GN8       0.172000
     30 HAF          1.6250    -0.1530     0.4830 ha         1 GN8       0.158000
     31 HAO1         2.2500    -3.8850     5.0290 h1         1 GN8       0.084200
     32 HAO2         3.4090    -2.7590     4.3380 h1         1 GN8       0.084200
     33 HAM          1.5260    -5.8710     3.2980 ha         1 GN8       0.138500
     34 HAI          2.5510    -7.6750     1.9870 ha         1 GN8       0.134500
     35 HAG          4.9060    -7.4960     1.2440 ha         1 GN8       0.133000
     36 HAH          6.2240    -5.4810     1.8200 ha         1 GN8       0.134500
     37 HAL          5.1900    -3.6590     3.1180 ha         1 GN8       0.138500
@<TRIPOS>BOND
     1     1     2 2   
     2     2     3 1   
     3     2    18 1   
     4     3     4 2   
     5     3    15 1   
     6     4     5 1   
     7     4    30 1   
     8     5     6 ar  
     9     5    14 ar  
    10     6     7 1   
    11     6     8 ar  
    12     7    26 1   
    13     8     9 1   
    14     8    12 ar  
    15     9    10 1   
    16     9    11 1   
    17    12    13 ar  
    18    12    29 1   
    19    13    14 ar  
    20    13    28 1   
    21    14    27 1   
    22    15    16 1   
    23    16    17 2   
    24    16    18 1   
    25    18    19 1   
    26    19    20 1   
    27    19    31 1   
    28    19    32 1   
    29    20    21 ar  
    30    20    22 ar  
    31    21    25 ar  
    32    21    37 1   
    33    22    23 ar  
    34    22    33 1   
    35    23    24 ar  
    36    23    34 1   
    37    24    25 ar  
    38    24    35 1   
    39    25    36 1   
@<TRIPOS>SUBSTRUCTURE
     1 GN8         1 TEMP              0 ****  ****    0 ROOT
