@<TRIPOS>MOLECULE
GN8
   37    39     1     0     0
SMALL
No Charge or Current Charge


@<TRIPOS>ATOM
      1 OAA          2.8490    -1.4310     2.4650 o          1 GN8      -0.466000
      2 CAU          1.7440    -1.9100     2.6820 c          1 GN8       0.567200
      3 CAW          0.4730    -1.4170     2.1260 cc         1 GN8      -0.138600
      4 CAF          0.3900    -0.3350     1.2800 cf         1 GN8      -0.056200
      5 CAR         -0.6760     0.2190     0.3980 ca         1 GN8      -0.195800
      6 CAQ         -0.5720     1.5320    -0.1330 ca         1 GN8       0.238100
      7 OAC          0.4440     2.3510     0.2680 oh         1 GN8      -0.489100
      8 CAT         -1.5530     2.0270    -1.0170 ca         1 GN8      -0.224200
      9 NAY         -1.4490     3.3940    -1.5860 no         1 GN8       0.703200
     10 OAD         -0.3960     3.7070    -2.1570 o          1 GN8      -0.387000
     11 OAB         -2.4910     4.0590    -1.6600 o          1 GN8      -0.387000
     12 CAN         -2.6630     1.2300    -1.3550 ca         1 GN8       0.003000
     13 CAJ         -2.7770    -0.0630    -0.8280 ca         1 GN8      -0.157000
     14 CAK         -1.7920    -0.5670     0.0340 ca         1 GN8      -0.009000
     15 SAP         -0.8740    -2.3670     2.7010 ss         1 GN8      -0.040200
     16 CAV          0.2000    -3.4100     3.6550 cs         1 GN8       0.324000
     17 SAE         -0.3760    -4.6750     4.5900 s          1 GN8      -0.395400
     18 NAX          1.5140    -3.0160     3.5120 n          1 GN8      -0.299400
     19 CAO          2.6510    -3.6990     4.1680 c3         1 GN8       0.145300
     20 CAS          3.3180    -4.7410     3.2760 ca         1 GN8      -0.120300
     21 CAL          4.4300    -4.3920     2.4830 ca         1 GN8      -0.085500
     22 CAM          2.8290    -6.0620     3.2350 ca         1 GN8      -0.085500
     23 CAI          3.4420    -7.0200     2.4090 ca         1 GN8      -0.113500
     24 CAG          4.5480    -6.6650     1.6190 ca         1 GN8      -0.096000
     25 CAH          5.0410    -5.3500     1.6570 ca         1 GN8      -0.113500
     26 HAC          0.6990     2.1010     1.1790 ho         1 GN8       0.487000
     27 HAK         -1.8960    -1.5900     0.3790 ha         1 GN8       0.134000
     28 HAJ         -3.6270    -0.6850    -1.1010 ha         1 GN8       0.138000
     29 HAN         -3.4320     1.6030    -2.0320 ha         1 GN8       0.154000
     30 HAF          1.3730     0.1050     1.0920 ha         1 GN8       0.208000
     31 HAO1         2.3070    -4.1800     5.0930 h1         1 GN8       0.084200
     32 HAO2         3.3950    -2.9500     4.4720 h1         1 GN8       0.084200
     33 HAM          1.9750    -6.3490     3.8430 ha         1 GN8       0.120500
     34 HAI          3.0590    -8.0380     2.3810 ha         1 GN8       0.116500
     35 HAG          5.0220    -7.4070     0.9790 ha         1 GN8       0.115000
     36 HAH          5.8980    -5.0740     1.0460 ha         1 GN8       0.116500
     37 HAL          4.8210    -3.3760     2.5040 ha         1 GN8       0.120500
@<TRIPOS>BOND
     1     1     2 2   
     2     2     3 1   
     3     2    18 1   
     4     3     4 2   
     5     3    15 1   
     6     4     5 1   
     7     4    30 1   
     8     5     6 ar  
     9     5    14 ar  
    10     6     7 1   
    11     6     8 ar  
    12     7    26 1   
    13     8     9 1   
    14     8    12 ar  
    15     9    10 1   
    16     9    11 1   
    17    12    13 ar  
    18    12    29 1   
    19    13    14 ar  
    20    13    28 1   
    21    14    27 1   
    22    15    16 1   
    23    16    17 2   
    24    16    18 1   
    25    18    19 1   
    26    19    20 1   
    27    19    31 1   
    28    19    32 1   
    29    20    21 ar  
    30    20    22 ar  
    31    21    25 ar  
    32    21    37 1   
    33    22    23 ar  
    34    22    33 1   
    35    23    24 ar  
    36    23    34 1   
    37    24    25 ar  
    38    24    35 1   
    39    25    36 1   
@<TRIPOS>SUBSTRUCTURE
     1 GN8         1 TEMP              0 ****  ****    0 ROOT
