@<TRIPOS>MOLECULE
GNB
   55    54     1     0     0
SMALL
No Charge or Current Charge


@<TRIPOS>ATOM
      1 C           64.9200    37.2430    25.7100 c          1 GNB       0.350000
      2 OT1         65.3230    37.2920    26.8660 o          1 GNB      -0.587000
      3 OT2         63.9990    37.9820    25.3840 o          1 GNB      -0.587000
      4 N           66.9750    36.3330    24.6460 n8         1 GNB      -0.298000
      5 CA          65.5030    36.2500    24.7040 c3         1 GNB      -0.111000
      6 CB          65.0710    34.7800    24.9630 c3         1 GNB      -0.172000
      7 CB2         60.9890    37.9620    22.6940 c3         1 GNB      -0.267000
      8 SG2         59.5420    37.3780    23.6720 ss         1 GNB       0.240000
      9 CG          63.5360    34.5490    25.0130 c3         1 GNB      -0.167000
     10 CD          62.8160    34.8670    23.7210 c          1 GNB       0.316000
     11 OE          62.5510    34.0170    22.8780 o          1 GNB      -0.421000
     12 N2          62.4910    36.2180    23.5780 ns         1 GNB      -0.402000
     13 CA2         61.9450    36.7980    22.3460 c3         1 GNB       0.010000
     14 C2          63.0780    37.2050    21.4010 c          1 GNB       0.292000
     15 O2          63.4230    38.3690    21.2090 o          1 GNB      -0.383000
     16 N3          63.7150    36.1130    20.7960 ns         1 GNB      -0.329000
     17 CA3         64.8190    36.2400    19.8340 c3         1 GNB      -0.117000
     18 C3          65.1560    34.9120    19.1790 c          1 GNB       0.341000
     19 O31         64.6060    34.5710    18.1400 o          1 GNB      -0.572000
     20 O32         65.9860    34.1630    19.6760 o          1 GNB      -0.572000
     21 CD2         58.6630    38.8140    23.8800 c1         1 GNB      -0.287000
     22 OZ1         57.9880    39.9210    24.0400 oh         1 GNB      -0.211000
     23 CG2         58.5450    21.6320    33.7290 c2         1 GNB      -1.627000
     24 Cl1         58.2360    20.0960    32.7930 cl         1 GNB       1.585500
     25 Cl2         59.1900    20.3450    34.8530 cl         1 GNB       1.585500
     26 CM1         59.6830    20.9480    32.0700 c2         1 GNB      -0.555000
     27 CM2         60.6000    21.1870    34.0570 c2         1 GNB      -0.555000
     28 CZ          60.8050    21.3460    32.7250 c2         1 GNB      -0.270000
     29 OH1         57.3430    23.4290    33.3890 oh         1 GNB      -0.373000
     30 CH          57.3040    22.3330    34.2240 c3         1 GNB       0.152000
     31 N7          61.9940    21.9920    32.0980 no         1 GNB       0.609000
     32 O8          62.9200    22.3540    32.8390 o          1 GNB      -0.384500
     33 O9          62.0640    22.0050    30.8590 o          1 GNB      -0.384500
     34 H11N        67.3370    35.6290    24.0030 hn         1 GNB       0.123500
     35 H12N        67.3660    36.1100    25.5620 hn         1 GNB       0.123500
     36 HA1         65.1450    36.5370    23.7070 h1         1 GNB       0.130000
     37 HB1         65.4980    34.1360    24.1840 hc         1 GNB       0.074500
     38 HB2         65.5040    34.4440    25.9150 hc         1 GNB       0.074500
     39 HB21        60.6140    38.4220    21.7710 h1         1 GNB       0.128500
     40 HB22        61.5190    38.7290    23.2710 h1         1 GNB       0.128500
     41 HG1         63.3540    33.4980    25.2700 hc         1 GNB       0.084500
     42 HG2         63.1020    35.1280    25.8380 hc         1 GNB       0.084500
     43 HN21        62.8780    36.8570    24.2720 hn         1 GNB       0.317000
     44 HA2         61.3500    36.0270    21.8360 h1         1 GNB       0.100000
     45 HN3         63.4310    35.1830    21.0870 hn         1 GNB       0.234000
     46 HA31        64.5360    36.9700    19.0640 h1         1 GNB       0.066000
     47 HA32        65.6990    36.6290    20.3600 h1         1 GNB       0.066000
     48 HD2         58.2430    23.3020    33.0150 ho         1 GNB       0.258000
     49 HOZ1        57.5210    39.9230    24.8980 ho         1 GNB       0.230000
     50 HL1         59.3220    23.4730    31.8930 ha         1 GNB      -0.294500
     51 HL2         59.8620    23.7010    34.1600 ha         1 GNB      -0.294500
     52 HM1         59.5530    21.0330    30.9960 h4         1 GNB       0.204000
     53 HM2         61.3140    21.4920    34.8160 h4         1 GNB       0.204000
     54 HC1         56.3690    21.7650    34.0870 h1         1 GNB       0.054500
     55 HC2         57.3840    22.6490    35.2770 h1         1 GNB       0.054500
@<TRIPOS>BOND
     1     1     2 1   
     2     1     3 1   
     3     1     5 1   
     4     4     5 1   
     5     4    34 1   
     6     4    35 1   
     7     5     6 1   
     8     5    36 1   
     9     6     9 1   
    10     6    37 1   
    11     6    38 1   
    12     7     8 1   
    13     7    13 1   
    14     7    39 1   
    15     7    40 1   
    16     8    21 1   
    17     9    10 1   
    18     9    41 1   
    19     9    42 1   
    20    10    11 1   
    21    10    12 1   
    22    12    13 1   
    23    12    43 1   
    24    13    14 1   
    25    13    44 1   
    26    14    15 1   
    27    14    16 1   
    28    16    17 1   
    29    16    45 1   
    30    17    18 1   
    31    17    46 1   
    32    17    47 1   
    33    18    19 1   
    34    18    20 1   
    35    21    22 1   
    36    22    49 1   
    37    23    24 1   
    38    23    25 1   
    39    23    30 1   
    40    24    26 1   
    41    24    50 1   
    42    25    27 1   
    43    25    51 1   
    44    26    28 1   
    45    26    52 1   
    46    27    28 1   
    47    27    53 1   
    48    28    31 1   
    49    29    30 1   
    50    29    48 1   
    51    30    54 1   
    52    30    55 1   
    53    31    32 1   
    54    31    33 1   
@<TRIPOS>SUBSTRUCTURE
     1 GNB         1 TEMP              0 ****  ****    0 ROOT
