@<TRIPOS>MOLECULE
GNB
   55    54     1     0     0
SMALL
abcg2


@<TRIPOS>ATOM
      1 C           64.4040    34.3060    27.7670 c2         1 GNB       0.350000
      2 OT1         65.1170    34.9120    28.5840 o          1 GNB      -0.587000
      3 OT2         63.1860    34.0250    27.9380 o          1 GNB      -0.587000
      4 N           66.0010    34.9420    26.0000 n8         1 GNB      -0.298000
      5 CA          65.0080    33.9570    26.3990 c3         1 GNB      -0.111000
      6 CB          65.5820    32.5290    26.4250 c3         1 GNB      -0.172000
      7 CB2         60.1590    32.8490    25.8130 c3         1 GNB      -0.267000
      8 SG2         59.7670    31.6300    27.1180 ss         1 GNB       0.240000
      9 CG          64.6120    31.4010    26.8020 c3         1 GNB      -0.167000
     10 CD          63.4650    31.2820    25.8220 c2         1 GNB       0.316000
     11 OE          63.4580    30.4530    24.9180 o          1 GNB      -0.421000
     12 N2          62.4800    32.1760    26.0110 ns         1 GNB      -0.402000
     13 CA2         61.3870    32.3280    25.0810 c3         1 GNB       0.010000
     14 C2          61.7910    33.2830    23.9480 c2         1 GNB       0.292000
     15 O2          61.5660    34.4830    24.0120 o          1 GNB      -0.383000
     16 N3          62.3890    32.6850    22.9160 ns         1 GNB      -0.329000
     17 CA3         63.0080    33.4250    21.8510 c3         1 GNB      -0.117000
     18 C3          64.4370    33.9260    22.1500 c2         1 GNB       0.341000
     19 O31         65.0010    33.4890    23.1650 o          1 GNB      -0.572000
     20 O32         64.8790    34.7520    21.3190 o          1 GNB      -0.572000
     21 CD2         58.2880    32.0360    27.8220 c1         1 GNB      -0.287000
     22 OZ1         57.7720    33.1520    27.3880 oh         1 GNB      -0.211000
     23 CG2         59.7390    29.1270    29.2800 c2         1 GNB      -1.627000
     24 CL1         59.3660    28.4340    28.1310 cl         1 GNB       1.585500
     25 CL2         61.0910    29.3750    29.5040 cl         1 GNB       1.585500
     26 CM1         60.3150    28.0120    27.2170 c2         1 GNB      -0.555000
     27 CM2         62.0550    28.9540    28.6080 c2         1 GNB      -0.555000
     28 CZ          61.6530    28.2810    27.4640 c2         1 GNB      -0.270000
     29 OH1         57.4770    29.9440    29.6690 oh         1 GNB      -0.373000
     30 CH          58.7030    29.6240    30.2600 c3         1 GNB       0.152000
     31 N7          62.6560    27.8330    26.5150 no         1 GNB       0.609000
     32 O8          63.8190    27.8980    26.8430 o          1 GNB      -0.384500
     33 O9          62.2830    27.4250    25.4400 o          1 GNB      -0.384500
     34 H11N        66.3460    34.6820    25.0830 hn         1 GNB       0.123500
     35 H12N        66.7880    34.9120    26.6370 hn         1 GNB       0.123500
     36 HA1         64.2250    33.9930    25.6410 h1         1 GNB       0.130000
     37 HB1         65.9920    32.3210    25.4340 hc         1 GNB       0.074500
     38 HB2         66.4190    32.5030    27.1310 hc         1 GNB       0.074500
     39 HB21        59.3120    32.9330    25.1330 h1         1 GNB       0.128500
     40 HB22        60.3460    33.8230    26.2650 h1         1 GNB       0.128500
     41 HG1         65.1520    30.4540    26.8030 hc         1 GNB       0.084500
     42 HG2         64.2290    31.5550    27.8120 hc         1 GNB       0.084500
     43 HN21        62.6430    32.9150    26.7190 hn         1 GNB       0.317000
     44 HA2         61.1570    31.3480    24.6560 h1         1 GNB       0.100000
     45 HN3         62.6740    31.7270    23.0420 hn         1 GNB       0.234000
     46 HA31        63.0460    32.7740    20.9750 h1         1 GNB       0.066000
     47 HA32        62.3730    34.2670    21.5790 h1         1 GNB       0.066000
     48 HD2         57.6460    30.7010    29.0540 ho         1 GNB       0.258000
     49 HOZ1        56.9370    33.3210    27.8480 ho         1 GNB       0.230000
     50 HL1         58.3220    28.2360    27.9300 ha         1 GNB      -0.294500
     51 HL2         61.3980    29.9250    30.3850 ha         1 GNB      -0.294500
     52 HM1         60.0060    27.4830    26.3270 h4         1 GNB       0.204000
     53 HM2         63.0970    29.1690    28.7970 h4         1 GNB       0.204000
     54 HC1         58.5220    28.8390    31.0020 h1         1 GNB       0.054500
     55 HC2         59.1330    30.4700    30.8140 h1         1 GNB       0.054500
@<TRIPOS>BOND
     1     1     2 1   
     2     1     3 1   
     3     1     5 1   
     4     4     5 1   
     5     4    34 1   
     6     4    35 1   
     7     5     6 1   
     8     5    36 1   
     9     6     9 1   
    10     6    37 1   
    11     6    38 1   
    12     7     8 1   
    13     7    13 1   
    14     7    39 1   
    15     7    40 1   
    16     8    21 1   
    17     9    10 1   
    18     9    41 1   
    19     9    42 1   
    20    10    11 1   
    21    10    12 1   
    22    12    13 1   
    23    12    43 1   
    24    13    14 1   
    25    13    44 1   
    26    14    15 1   
    27    14    16 1   
    28    16    17 1   
    29    16    45 1   
    30    17    18 1   
    31    17    46 1   
    32    17    47 1   
    33    18    19 1   
    34    18    20 1   
    35    21    22 1   
    36    22    49 1   
    37    23    24 1   
    38    23    25 1   
    39    23    30 1   
    40    24    26 1   
    41    24    50 1   
    42    25    27 1   
    43    25    51 1   
    44    26    28 1   
    45    26    52 1   
    46    27    28 1   
    47    27    53 1   
    48    28    31 1   
    49    29    30 1   
    50    29    48 1   
    51    30    54 1   
    52    30    55 1   
    53    31    32 1   
    54    31    33 1   
@<TRIPOS>SUBSTRUCTURE
     1 GNB         1 TEMP              0 ****  ****    0 ROOT
