@<TRIPOS>MOLECULE
GNC
   22    21     1     0     0
SMALL
bcc


@<TRIPOS>ATOM
      1 C1         -20.8340   -20.9170    -0.1210 c3         1 GNC       0.158100
      2 NE2        -24.8530   -19.4790    -2.4530 nt         1 GNC      -0.688000
      3 OE1        -26.3660   -20.8140    -1.4520 o          1 GNC      -0.628100
      4 O          -22.8030   -24.4230     0.2770 o          1 GNC      -0.835800
      5 CG         -24.2910   -20.4350    -0.3080 c3         1 GNC      -0.157400
      6 CB         -23.6620   -21.8290    -0.3420 c3         1 GNC      -0.043400
      7 CD         -25.2740   -20.2610    -1.4440 c          1 GNC       0.669100
      8 C          -22.1520   -23.5320     0.8580 c          1 GNC       0.907600
      9 CA         -22.7430   -22.0900     0.8480 c3         1 GNC       0.020500
     10 N          -21.7470   -21.0360     0.9990 n7         1 GNC      -0.810200
     11 HC1        -20.0380   -20.2180     0.1390 h1         1 GNC       0.011033
     12 HC2        -20.3580   -21.8570    -0.4300 h1         1 GNC       0.011033
     13 HC3        -21.3430   -20.5030    -0.9930 h1         1 GNC       0.011033
     14 HE21       -25.4180   -19.3580    -3.2770 hn         1 GNC       0.300000
     15 HE22       -23.9420   -19.0530    -2.4500 hn         1 GNC       0.300000
     16 HG2        -24.8320   -20.3040     0.6330 hc         1 GNC       0.056200
     17 HG3        -23.5150   -19.6690    -0.3390 hc         1 GNC       0.056200
     18 HB2        -24.4530   -22.5790    -0.3360 hc         1 GNC       0.051200
     19 HB3        -23.1230   -21.9650    -1.2840 hc         1 GNC       0.051200
     20 HA         -23.3750   -22.0310     1.7470 h1         1 GNC       0.037700
     21 H2         -21.2020   -21.2620     1.8200 hn         1 GNC       0.359800
     22 OXT        -21.0940   -23.6870     1.5020 o          1 GNC      -0.835800
@<TRIPOS>BOND
     1     1    10 1   
     2     1    11 1   
     3     1    12 1   
     4     1    13 1   
     5     2     7 1   
     6     2    14 1   
     7     2    15 1   
     8     3     7 2   
     9     4     8 1   
    10     5     6 1   
    11     5     7 1   
    12     5    16 1   
    13     5    17 1   
    14     6     9 1   
    15     6    18 1   
    16     6    19 1   
    17     8     9 1   
    18     8    22 1   
    19     9    10 1   
    20     9    20 1   
    21    10    21 1   
@<TRIPOS>SUBSTRUCTURE
     1 GNC         1 TEMP              0 ****  ****    0 ROOT
