@<TRIPOS>MOLECULE
GNC
   22    21     1     0     0
SMALL
No Charge or Current Charge


@<TRIPOS>ATOM
      1 C1         -20.6280   -20.9760    -0.1660 c3         1 GNC       0.158100
      2 NE2        -24.9650   -19.5280    -2.4720 nt         1 GNC      -0.688000
      3 OE1        -26.5320   -20.6820    -1.3900 o          1 GNC      -0.628100
      4 O          -22.1670   -24.2110    -0.1740 o          1 GNC      -0.835800
      5 CG         -24.4070   -20.3980    -0.2540 c3         1 GNC      -0.157400
      6 CB         -23.6820   -21.7680    -0.3360 c3         1 GNC      -0.043400
      7 CD         -25.4010   -20.2270    -1.4040 c          1 GNC       0.669100
      8 C          -22.1820   -23.5540     0.8640 c          1 GNC       0.907600
      9 CA         -22.7020   -22.0480     0.8440 c3         1 GNC       0.020500
     10 N          -21.6230   -20.9880     0.9240 n7         1 GNC      -0.810200
     11 HC1        -19.8850   -20.1860     0.0080 h1         1 GNC       0.011033
     12 HC2        -20.0970   -21.9350    -0.2220 h1         1 GNC       0.011033
     13 HC3        -21.1040   -20.7840    -1.1360 h1         1 GNC       0.011033
     14 HE21       -25.5850   -19.3890    -3.2570 hn         1 GNC       0.300000
     15 HE22       -24.0270   -19.1550    -2.4800 hn         1 GNC       0.300000
     16 HG2        -24.9470   -20.3410     0.6990 hc         1 GNC       0.056200
     17 HG3        -23.6480   -19.6100    -0.3120 hc         1 GNC       0.056200
     18 HB2        -24.4440   -22.5580    -0.3440 hc         1 GNC       0.051200
     19 HB3        -23.1510   -21.8440    -1.2930 hc         1 GNC       0.051200
     20 HA         -23.3100   -21.9620     1.7540 h1         1 GNC       0.037700
     21 H2         -21.1100   -21.1320     1.8030 hn         1 GNC       0.359800
     22 OXT        -21.8190   -24.0270     1.9370 o          1 GNC      -0.835800
@<TRIPOS>BOND
     1     1    10 1   
     2     1    11 1   
     3     1    12 1   
     4     1    13 1   
     5     2     7 1   
     6     2    14 1   
     7     2    15 1   
     8     3     7 2   
     9     4     8 1   
    10     5     6 1   
    11     5     7 1   
    12     5    16 1   
    13     5    17 1   
    14     6     9 1   
    15     6    18 1   
    16     6    19 1   
    17     8     9 1   
    18     8    22 1   
    19     9    10 1   
    20     9    20 1   
    21    10    21 1   
@<TRIPOS>SUBSTRUCTURE
     1 GNC         1 TEMP              0 ****  ****    0 ROOT
