@<TRIPOS>MOLECULE
GND
   26    25     1     0     0
SMALL
No Charge or Current Charge


@<TRIPOS>ATOM
      1 CA          55.9300     0.0550    -2.6680 c3         1 GND      -0.060700
      2 CB          56.6360     1.1100    -3.5500 c3         1 GND      -0.088400
      3 CG          58.0920     1.4090    -3.1190 c3         1 GND      -0.125400
      4 CD          58.7460     2.5290    -3.9570 c3         1 GND       0.219800
      5 NE          60.1350     2.7580    -3.5300 nu         1 GND      -0.941400
      6 CZ          60.4300     3.3400    -2.3860 c2         1 GND       0.783100
      7 NH1         61.2190     2.7500    -1.6380 n2         1 GND      -0.890100
      8 NH2         60.6560     4.5470    -2.7790 nv         1 GND      -1.018200
      9 C           54.4000    -0.0320    -3.0170 c          1 GND       0.717000
     10 OXT         53.6130     0.5050    -2.2520 o          1 GND      -0.648500
     11 O           54.0690    -0.7550    -3.9460 o          1 GND      -0.648500
     12 N           56.6530    -1.2970    -2.7480 nz         1 GND      -0.991000
     13 HA          55.9720     0.3980    -1.6300 hx         1 GND       0.086700
     14 HB1         56.0580     2.0430    -3.5070 hc         1 GND       0.080200
     15 HB2         56.6200     0.7810    -4.5970 hc         1 GND       0.080200
     16 HG1         58.6960     0.4990    -3.2130 hc         1 GND       0.039700
     17 HG2         58.0970     1.6960    -2.0610 hc         1 GND       0.039700
     18 HD1         58.1580     3.4530    -3.8580 h1         1 GND       0.055700
     19 HD2         58.7280     2.2360    -5.0160 h1         1 GND       0.055700
     20 HE          60.7830     2.0140    -3.7620 hn         1 GND       0.462000
     21 HH11        61.0420     1.7470    -1.7510 hn         1 GND       0.376400
     22 HH21        60.5350     4.5270    -3.7780 hn         1 GND       0.463500
     23 HH22        61.5830     4.8220    -2.4940 hn         1 GND       0.463500
     24 HN1         57.6520    -1.2530    -2.4980 hn         1 GND       0.496333
     25 HN2         56.6080    -1.7130    -3.6920 hn         1 GND       0.496333
     26 HN3         56.2400    -2.0110    -2.1260 hn         1 GND       0.496333
@<TRIPOS>BOND
     1     1     2 1   
     2     1     9 1   
     3     1    12 1   
     4     1    13 1   
     5     2     3 1   
     6     2    14 1   
     7     2    15 1   
     8     3     4 1   
     9     3    16 1   
    10     3    17 1   
    11     4     5 1   
    12     4    18 1   
    13     4    19 1   
    14     5     6 1   
    15     5    20 1   
    16     6     7 2   
    17     6     8 1   
    18     7    21 1   
    19     8    22 1   
    20     8    23 1   
    21     9    10 1   
    22     9    11 1   
    23    12    24 1   
    24    12    25 1   
    25    12    26 1   
@<TRIPOS>SUBSTRUCTURE
     1 GND         1 TEMP              0 ****  ****    0 ROOT
