@<TRIPOS>MOLECULE
GND
   26    25     1     0     0
SMALL
bcc


@<TRIPOS>ATOM
      1 CA          55.9710     0.2230    -2.6010 c3         1 GND      -0.032500
      2 CB          56.7190     1.1440    -3.5470 c3         1 GND      -0.088400
      3 CG          58.1850     1.3460    -3.1830 c3         1 GND      -0.125400
      4 CD          58.8650     2.3230    -4.1360 c3         1 GND       0.219800
      5 NE          60.2800     2.5180    -3.8870 nu         1 GND      -0.886200
      6 CZ          60.7810     3.1440    -2.7710 c2         1 GND       0.783100
      7 NH1         61.9360     2.9340    -2.2530 n2         1 GND      -0.890100
      8 NH2         59.9370     4.0670    -2.1950 nv         1 GND      -0.907800
      9 C           54.4470     0.0960    -2.8940 c          1 GND       0.927600
     10 OXT         53.8400     1.1490    -3.1010 o          1 GND      -0.753800
     11 O           54.0030    -1.0720    -2.8580 o          1 GND      -0.753800
     12 N           56.5190    -1.1650    -2.6270 nz         1 GND      -0.853600
     13 HA          56.0890     0.5790    -1.5740 hx         1 GND       0.086700
     14 HB1         56.2030     2.1060    -3.5300 hc         1 GND       0.080200
     15 HB2         56.6320     0.7650    -4.5710 hc         1 GND       0.080200
     16 HG1         58.7290     0.3960    -3.2120 hc         1 GND       0.039700
     17 HG2         58.2590     1.7210    -2.1580 hc         1 GND       0.039700
     18 HD1         58.3430     3.2820    -4.1210 h1         1 GND       0.055700
     19 HD2         58.7730     1.9580    -5.1600 h1         1 GND       0.055700
     20 HE          60.8590     1.7640    -4.2220 hn         1 GND       0.406800
     21 HH11        62.4000     2.1550    -2.7080 hn         1 GND       0.376400
     22 HH21        59.3600     4.6090    -2.8190 hn         1 GND       0.408300
     23 HH22        60.3980     4.6460    -1.5110 hn         1 GND       0.408300
     24 HN1         57.1540    -1.3790    -1.8610 hn         1 GND       0.441133
     25 HN2         56.9990    -1.3870    -3.4980 hn         1 GND       0.441133
     26 HN3         55.6700    -1.7620    -2.5740 hn         1 GND       0.441133
@<TRIPOS>BOND
     1     1     2 1   
     2     1     9 1   
     3     1    12 1   
     4     1    13 1   
     5     2     3 1   
     6     2    14 1   
     7     2    15 1   
     8     3     4 1   
     9     3    16 1   
    10     3    17 1   
    11     4     5 1   
    12     4    18 1   
    13     4    19 1   
    14     5     6 1   
    15     5    20 1   
    16     6     7 2   
    17     6     8 1   
    18     7    21 1   
    19     8    22 1   
    20     8    23 1   
    21     9    10 1   
    22     9    11 1   
    23    12    24 1   
    24    12    25 1   
    25    12    26 1   
@<TRIPOS>SUBSTRUCTURE
     1 GND         1 TEMP              0 ****  ****    0 ROOT
