@<TRIPOS>MOLECULE
GNF
   64    67     1     0     0
SMALL
No Charge or Current Charge


@<TRIPOS>ATOM
      1 O11         -0.3430    -0.4780    -1.9500 o          1 GNF      -0.591100
      2 C10          0.3070    -0.2780    -0.9300 c          1 GNF       0.585100
      3 C12          1.5980     0.6130    -0.8860 c3         1 GNF       0.165500
      4 N20          2.8360    -0.1900    -1.0790 nu         1 GNF      -0.859400
      5 C21          3.4240    -0.9790    -0.1480 cc         1 GNF       0.768500
      6 O29          4.4770    -1.7900    -0.5230 os         1 GNF      -0.301700
      7 C28          4.7480    -2.4000     0.6570 ca         1 GNF       0.013100
      8 C27          5.7440    -3.3530     0.9010 ca         1 GNF      -0.081000
      9 C26          5.8540    -3.8640     2.2120 ca         1 GNF      -0.113000
     10 C25          4.9780    -3.4140     3.2290 ca         1 GNF      -0.115000
     11 C24          3.9850    -2.4500     2.9420 ca         1 GNF      -0.072000
     12 C23          3.8980    -1.9590     1.6320 ca         1 GNF       0.099400
     13 N22          3.0200    -1.0270     1.1230 nd         1 GNF      -0.663100
     14 C13          1.5440     1.7900    -1.8980 c3         1 GNF      -0.083400
     15 C14          2.6950     2.8450    -1.8040 c6         1 GNF      -0.058700
     16 C19          2.5680     3.8940    -2.9450 c6         1 GNF      -0.072900
     17 C18          3.7020     4.9470    -2.8860 c6         1 GNF      -0.072900
     18 C17          3.7410     5.6490    -1.5080 c6         1 GNF      -0.075400
     19 C16          3.8770     4.6170    -0.3640 c6         1 GNF      -0.072900
     20 C15          2.7470     3.5590    -0.4200 c6         1 GNF      -0.072900
     21 N9          -0.0710    -0.8140     0.2850 ns         1 GNF      -0.498900
     22 C8          -1.2620    -1.6450     0.5060 c3         1 GNF       0.088000
     23 C7          -2.5830    -0.8370     0.4490 c3         1 GNF       0.173800
     24 N           -3.7590    -1.6850     0.7310 nu         1 GNF      -0.927200
     25 C5          -5.1000    -1.2870     0.7640 ca         1 GNF       0.259000
     26 C4          -6.0910    -2.2470     1.0250 ca         1 GNF      -0.137000
     27 C3          -7.4480    -1.8780     1.0660 ca         1 GNF      -0.131000
     28 C30         -5.4790     0.0520     0.5440 ca         1 GNF      -0.137000
     29 C31         -6.8360     0.4260     0.5830 ca         1 GNF      -0.131000
     30 C2          -7.8290    -0.5440     0.8460 ca         1 GNF       0.098100
     31 O           -9.1740    -0.2390     0.8980 os         1 GNF      -0.342100
     32 C           -9.6670     1.0970     0.6860 c3         1 GNF       0.149900
     33 H12          1.6070     1.0510     0.1200 h1         1 GNF       0.085700
     34 HN20         3.1770    -0.3640    -2.0210 hn         1 GNF       0.512000
     35 H27          6.4070    -3.6870     0.1060 ha         1 GNF       0.131000
     36 H26          6.6150    -4.6070     2.4410 ha         1 GNF       0.116000
     37 H25          5.0680    -3.8120     4.2370 ha         1 GNF       0.115000
     38 H24          3.3070    -2.0960     3.7140 ha         1 GNF       0.129000
     39 H131         1.5190     1.3690    -2.9110 hc         1 GNF       0.055700
     40 H132         0.5830     2.3030    -1.7670 hc         1 GNF       0.055700
     41 H14          3.6390     2.3000    -1.9490 hc         1 GNF       0.053700
     42 H191         2.5890     3.3920    -3.9210 hc         1 GNF       0.039200
     43 H192         1.5950     4.4010    -2.8780 hc         1 GNF       0.039200
     44 H181         4.6680     4.4620    -3.0830 hc         1 GNF       0.040950
     45 H182         3.5600     5.6920    -3.6810 hc         1 GNF       0.040950
     46 H171         4.5790     6.3580    -1.4740 hc         1 GNF       0.039200
     47 H172         2.8250     6.2410    -1.3670 hc         1 GNF       0.039200
     48 H161         4.8540     4.1180    -0.4310 hc         1 GNF       0.040950
     49 H162         3.8570     5.1320     0.6060 hc         1 GNF       0.040950
     50 H151         1.7810     4.0400    -0.2120 hc         1 GNF       0.039200
     51 H152         2.9130     2.8290     0.3830 hc         1 GNF       0.039200
     52 HN9          0.5630    -0.6570     1.0630 hn         1 GNF       0.314500
     53 H81         -1.1730    -2.1210     1.4910 h1         1 GNF       0.067700
     54 H82         -1.2870    -2.4390    -0.2520 h1         1 GNF       0.067700
     55 H71         -2.6850    -0.3840    -0.5470 h1         1 GNF       0.038200
     56 H72         -2.5300    -0.0230     1.1840 h1         1 GNF       0.038200
     57 HN          -3.5890    -2.6780     0.9010 hn         1 GNF       0.453000
     58 H4          -5.8130    -3.2840     1.1980 ha         1 GNF       0.112000
     59 H3          -8.2080    -2.6290     1.2690 ha         1 GNF       0.119000
     60 H30         -4.7290     0.8100     0.3410 ha         1 GNF       0.112000
     61 H31         -7.0950     1.4670     0.4090 ha         1 GNF       0.119000
     62 H1          -9.3970     1.4580    -0.3140 h1         1 GNF       0.037367
     63 H2         -10.7600     1.1160     0.7710 h1         1 GNF       0.037367
     64 H3A         -9.2550     1.7870     1.4340 h1         1 GNF       0.037367
@<TRIPOS>BOND
     1     1     2 2   
     2     2     3 1   
     3     2    21 1   
     4     3     4 1   
     5     3    14 1   
     6     3    33 1   
     7     4     5 1   
     8     4    34 1   
     9     5     6 1   
    10     5    13 2   
    11     6     7 1   
    12     7     8 ar  
    13     7    12 ar  
    14     8     9 ar  
    15     8    35 1   
    16     9    10 ar  
    17     9    36 1   
    18    10    11 ar  
    19    10    37 1   
    20    11    12 ar  
    21    11    38 1   
    22    12    13 1   
    23    14    15 1   
    24    14    39 1   
    25    14    40 1   
    26    15    16 1   
    27    15    20 1   
    28    15    41 1   
    29    16    17 1   
    30    16    42 1   
    31    16    43 1   
    32    17    18 1   
    33    17    44 1   
    34    17    45 1   
    35    18    19 1   
    36    18    46 1   
    37    18    47 1   
    38    19    20 1   
    39    19    48 1   
    40    19    49 1   
    41    20    50 1   
    42    20    51 1   
    43    21    22 1   
    44    21    52 1   
    45    22    23 1   
    46    22    53 1   
    47    22    54 1   
    48    23    24 1   
    49    23    55 1   
    50    23    56 1   
    51    24    25 1   
    52    24    57 1   
    53    25    26 ar  
    54    25    28 ar  
    55    26    27 ar  
    56    26    58 1   
    57    27    30 ar  
    58    27    59 1   
    59    28    29 ar  
    60    28    60 1   
    61    29    30 ar  
    62    29    61 1   
    63    30    31 1   
    64    31    32 1   
    65    32    62 1   
    66    32    63 1   
    67    32    64 1   
@<TRIPOS>SUBSTRUCTURE
     1 GNF         1 TEMP              0 ****  ****    0 ROOT
