@<TRIPOS>MOLECULE
GNF
   64    67     1     0     0
SMALL
abcg2


@<TRIPOS>ATOM
      1 O11          0.6450    -1.7810    -0.9640 o          1 GNF      -0.591100
      2 C10          0.7080    -0.8560    -0.1720 c          1 GNF       0.585100
      3 C12          1.7620     0.2450    -0.3190 c3         1 GNF       0.165500
      4 N20          3.0020    -0.2870    -0.8230 nu         1 GNF      -0.859400
      5 C21          3.7150    -1.1250    -0.0630 cc         1 GNF       0.768500
      6 O29          4.7910    -1.7080    -0.6330 os         1 GNF      -0.301700
      7 C28          5.3430    -2.4540     0.3710 ca         1 GNF       0.013100
      8 C27          6.4630    -3.2500     0.3330 ca         1 GNF      -0.081000
      9 C26          6.7880    -3.8920     1.5270 ca         1 GNF      -0.113000
     10 C25          6.0120    -3.7260     2.6740 ca         1 GNF      -0.115000
     11 C24          4.8830    -2.9130     2.6830 ca         1 GNF      -0.072000
     12 C23          4.5490    -2.2680     1.5000 ca         1 GNF       0.099400
     13 N22          3.5090    -1.4140     1.1820 nd         1 GNF      -0.663100
     14 C13          1.2220     1.3150    -1.2680 c3         1 GNF      -0.083400
     15 C14          2.1530     2.5040    -1.5050 c6         1 GNF      -0.058700
     16 C19          1.4800     3.4940    -2.4600 c6         1 GNF      -0.072900
     17 C18          2.3520     4.7160    -2.7270 c6         1 GNF      -0.072900
     18 C17          2.7430     5.4070    -1.4250 c6         1 GNF      -0.075400
     19 C16          3.4280     4.4310    -0.4750 c6         1 GNF      -0.072900
     20 C15          2.5580     3.2050    -0.2090 c6         1 GNF      -0.072900
     21 N9          -0.1440    -0.6700     0.8470 ns         1 GNF      -0.498900
     22 C8          -1.3370    -1.4520     1.0670 c3         1 GNF       0.088000
     23 C7          -2.5870    -0.6370     0.7590 c3         1 GNF       0.173800
     24 N           -3.7660    -1.4380     0.9860 nu         1 GNF      -0.927200
     25 C5          -5.0240    -0.8890     0.7850 ca         1 GNF       0.259000
     26 C4          -6.1550    -1.5520     1.2860 ca         1 GNF      -0.137000
     27 C3          -7.4270    -1.0610     1.0770 ca         1 GNF      -0.131000
     28 C30         -5.2350     0.2880     0.0700 ca         1 GNF      -0.137000
     29 C31         -6.5200     0.7820    -0.1500 ca         1 GNF      -0.131000
     30 C2          -7.6290     0.1150     0.3520 ca         1 GNF       0.098100
     31 O           -8.9130     0.5210     0.2000 os         1 GNF      -0.342100
     32 C           -9.1520     1.7030    -0.5320 c3         1 GNF       0.149900
     33 H12          1.9590     0.6910     0.6600 h1         1 GNF       0.085700
     34 HN20         3.1350    -0.3290    -1.8220 hn         1 GNF       0.512000
     35 H27          7.0590    -3.3720    -0.5620 ha         1 GNF       0.131000
     36 H26          7.6600    -4.5320     1.5610 ha         1 GNF       0.116000
     37 H25          6.2970    -4.2430     3.5810 ha         1 GNF       0.115000
     38 H24          4.2860    -2.7890     3.5770 ha         1 GNF       0.129000
     39 H131         0.9780     0.8480    -2.2280 hc         1 GNF       0.055700
     40 H132         0.2750     1.6780    -0.8550 hc         1 GNF       0.055700
     41 H14          3.0680     2.1470    -1.9950 hc         1 GNF       0.053700
     42 H191         1.2360     2.9900    -3.4000 hc         1 GNF       0.039200
     43 H192         0.5260     3.8160    -2.0250 hc         1 GNF       0.039200
     44 H181         3.2560     4.4080    -3.2620 hc         1 GNF       0.040950
     45 H182         1.8250     5.4130    -3.3840 hc         1 GNF       0.040950
     46 H171         3.3940     6.2610    -1.6270 hc         1 GNF       0.039200
     47 H172         1.8430     5.8060    -0.9440 hc         1 GNF       0.039200
     48 H161         4.3800     4.1090    -0.9110 hc         1 GNF       0.040950
     49 H162         3.6720     4.9240     0.4680 hc         1 GNF       0.040950
     50 H151         1.6550     3.5100     0.3330 hc         1 GNF       0.039200
     51 H152         3.0990     2.5160     0.4460 hc         1 GNF       0.039200
     52 HN9          0.0130     0.1060     1.4700 hn         1 GNF       0.314500
     53 H81         -1.3550    -1.7940     2.1040 h1         1 GNF       0.067700
     54 H82         -1.3000    -2.3350     0.4310 h1         1 GNF       0.067700
     55 H71         -2.5500    -0.3300    -0.2890 h1         1 GNF       0.038200
     56 H72         -2.5830     0.2830     1.3630 h1         1 GNF       0.038200
     57 HN          -3.7130    -1.9980     1.8250 hn         1 GNF       0.453000
     58 H4          -6.0290    -2.4690     1.8510 ha         1 GNF       0.112000
     59 H3          -8.2800    -1.5940     1.4790 ha         1 GNF       0.119000
     60 H30         -4.4010     0.8470    -0.3310 ha         1 GNF       0.112000
     61 H31         -6.6220     1.7000    -0.7140 ha         1 GNF       0.119000
     62 H1          -8.8160     1.6190    -1.5700 h1         1 GNF       0.037367
     63 H2         -10.2270     1.8620    -0.5260 h1         1 GNF       0.037367
     64 H3A         -8.6670     2.5730    -0.0800 h1         1 GNF       0.037367
@<TRIPOS>BOND
     1     1     2 2   
     2     2     3 1   
     3     2    21 1   
     4     3     4 1   
     5     3    14 1   
     6     3    33 1   
     7     4     5 1   
     8     4    34 1   
     9     5     6 1   
    10     5    13 2   
    11     6     7 1   
    12     7     8 ar  
    13     7    12 ar  
    14     8     9 ar  
    15     8    35 1   
    16     9    10 ar  
    17     9    36 1   
    18    10    11 ar  
    19    10    37 1   
    20    11    12 ar  
    21    11    38 1   
    22    12    13 1   
    23    14    15 1   
    24    14    39 1   
    25    14    40 1   
    26    15    16 1   
    27    15    20 1   
    28    15    41 1   
    29    16    17 1   
    30    16    42 1   
    31    16    43 1   
    32    17    18 1   
    33    17    44 1   
    34    17    45 1   
    35    18    19 1   
    36    18    46 1   
    37    18    47 1   
    38    19    20 1   
    39    19    48 1   
    40    19    49 1   
    41    20    50 1   
    42    20    51 1   
    43    21    22 1   
    44    21    52 1   
    45    22    23 1   
    46    22    53 1   
    47    22    54 1   
    48    23    24 1   
    49    23    55 1   
    50    23    56 1   
    51    24    25 1   
    52    24    57 1   
    53    25    26 ar  
    54    25    28 ar  
    55    26    27 ar  
    56    26    58 1   
    57    27    30 ar  
    58    27    59 1   
    59    28    29 ar  
    60    28    60 1   
    61    29    30 ar  
    62    29    61 1   
    63    30    31 1   
    64    31    32 1   
    65    32    62 1   
    66    32    63 1   
    67    32    64 1   
@<TRIPOS>SUBSTRUCTURE
     1 GNF         1 TEMP              0 ****  ****    0 ROOT
