@<TRIPOS>MOLECULE
GNG
   32    34     1     0     0
SMALL
abcg2


@<TRIPOS>ATOM
      1 O5          -1.4310     1.1660    -4.7230 oh         1 GNG      -0.705000
      2 C5          -0.9860    -0.0320    -4.1390 c3         1 GNG       0.165600
      3 C4           0.2800     0.2370    -3.3650 c5         1 GNG       0.157300
      4 O4           0.0220     1.1420    -2.2880 os         1 GNG      -0.425000
      5 C1           0.7330     0.7760    -1.1470 c5         1 GNG       0.317300
      6 N9          -0.2280     0.3960    -0.1050 na         1 GNG      -0.221500
      7 C8          -1.5550     0.0590    -0.2450 cc         1 GNG       0.406400
      8 N7          -2.1090    -0.2670     0.8830 nd         1 GNG      -0.592000
      9 C7          -1.1190    -0.1470     1.8220 cd         1 GNG       0.130500
     10 C9           0.0360     0.2630     1.2120 cc         1 GNG       0.192000
     11 N3           1.1970     0.4640     1.8870 na         1 GNG      -0.926200
     12 C2           1.1540     0.2390     3.2360 cc         1 GNG       0.899100
     13 N1           0.0870    -0.1590     3.8740 nd         1 GNG      -0.787100
     14 C6          -1.1200    -0.3730     3.2500 c          1 GNG       0.662000
     15 O6          -2.1050    -0.7330     3.8840 o          1 GNG      -0.526100
     16 N2           2.2870     0.4790     3.9110 nv         1 GNG      -1.055200
     17 C10          1.6400    -0.3820    -1.5420 c5         1 GNG      -0.172400
     18 C3           0.8740    -1.0030    -2.7070 c5         1 GNG       0.141300
     19 O3           1.6520    -1.7070    -3.6320 oh         1 GNG      -0.701000
     20 H5          -2.2350     0.9800    -5.2170 ho         1 GNG       0.511000
     21 H5'1        -0.7540    -0.7960    -4.8910 h1         1 GNG       0.031700
     22 H5'2        -1.7370    -0.4680    -3.4660 h1         1 GNG       0.031700
     23 H4           1.0290     0.6830    -4.0330 h1         1 GNG       0.087700
     24 H1           1.2900     1.6330    -0.7590 h2         1 GNG       0.082700
     25 H8          -2.0500     0.0870    -1.2020 h5         1 GNG       0.068100
     26 HN3          2.0270     0.8350     1.4480 hn         1 GNG       0.499000
     27 HN21         2.3210     0.2010     4.8770 hn         1 GNG       0.501500
     28 HN22         3.1690     0.5860     3.4380 hn         1 GNG       0.501500
     29 H2'1         1.8360    -1.0740    -0.7230 hc         1 GNG       0.077200
     30 H2'2         2.5950     0.0100    -1.8980 hc         1 GNG       0.077200
     31 H3           0.0600    -1.6310    -2.3160 h1         1 GNG       0.054700
     32 H6           1.8780    -2.5620    -3.2550 ho         1 GNG       0.517000
@<TRIPOS>BOND
     1     1     2 1   
     2     1    20 1   
     3     2     3 1   
     4     2    21 1   
     5     2    22 1   
     6     3     4 1   
     7     3    18 1   
     8     3    23 1   
     9     4     5 1   
    10     5     6 1   
    11     5    17 1   
    12     5    24 1   
    13     6     7 1   
    14     6    10 1   
    15     7     8 2   
    16     7    25 1   
    17     8     9 1   
    18     9    10 2   
    19     9    14 1   
    20    10    11 1   
    21    11    12 1   
    22    11    26 1   
    23    12    13 2   
    24    12    16 1   
    25    13    14 1   
    26    14    15 2   
    27    16    27 1   
    28    16    28 1   
    29    17    18 1   
    30    17    29 1   
    31    17    30 1   
    32    18    19 1   
    33    18    31 1   
    34    19    32 1   
@<TRIPOS>SUBSTRUCTURE
     1 GNG         1 TEMP              0 ****  ****    0 ROOT
