@<TRIPOS>MOLECULE
GNG
   32    34     1     0     0
SMALL
No Charge or Current Charge


@<TRIPOS>ATOM
      1 O5          -0.4340     2.4480    -4.1610 oh         1 GNG      -0.705000
      2 C5          -0.6480     1.0240    -4.0880 c3         1 GNG       0.165600
      3 C4           0.4130     0.3340    -3.1870 c5         1 GNG       0.157300
      4 O4           0.1920     0.6510    -1.7940 os         1 GNG      -0.425000
      5 C1           0.9040    -0.3170    -0.9910 c5         1 GNG       0.317300
      6 N9           0.0670    -0.6600     0.1570 na         1 GNG      -0.221500
      7 C8          -0.9110    -1.6420     0.2270 cc         1 GNG       0.406400
      8 N7          -1.4470    -1.7320     1.4520 nd         1 GNG      -0.592000
      9 C7          -0.7820    -0.7710     2.2150 cd         1 GNG       0.130500
     10 C9           0.1230    -0.1630     1.4210 cc         1 GNG       0.192000
     11 N3           0.9380     0.8800     1.8500 na         1 GNG      -0.926200
     12 C2           0.8230     1.2390     3.1470 cc         1 GNG       0.899100
     13 N1          -0.0040     0.7020     3.9810 nd         1 GNG      -0.787100
     14 C6          -0.8810    -0.3280     3.6240 c          1 GNG       0.662000
     15 O6          -1.6500    -0.7910     4.4560 o          1 GNG      -0.526100
     16 N2           1.6130     2.1840     3.5360 nv         1 GNG      -1.055200
     17 C10          1.2750    -1.4830    -1.9630 c5         1 GNG      -0.172400
     18 C3           0.3530    -1.2170    -3.1770 c5         1 GNG       0.141300
     19 O3           0.8640    -1.8160    -4.3700 oh         1 GNG      -0.701000
     20 H5          -1.1690     2.8220    -4.7010 ho         1 GNG       0.511000
     21 H5'1        -0.5870     0.5860    -5.0930 h1         1 GNG       0.031700
     22 H5'2        -1.6480     0.8030    -3.6910 h1         1 GNG       0.031700
     23 H4           1.4130     0.6820    -3.4820 h1         1 GNG       0.087700
     24 H1           1.8200     0.1310    -0.5870 h2         1 GNG       0.082700
     25 H8          -1.1880    -2.2440    -0.6310 h5         1 GNG       0.068100
     26 HN3          1.5540     1.3970     1.2410 hn         1 GNG       0.499000
     27 HN21         1.5980     2.2800     4.5410 hn         1 GNG       0.501500
     28 HN22         2.5390     2.1450     3.1380 hn         1 GNG       0.501500
     29 H2'1         1.1280    -2.4760    -1.5240 hc         1 GNG       0.077200
     30 H2'2         2.3330    -1.4150    -2.2420 hc         1 GNG       0.077200
     31 H3          -0.6740    -1.5570    -2.9790 h1         1 GNG       0.054700
     32 H6           0.8130    -2.7940    -4.2510 ho         1 GNG       0.517000
@<TRIPOS>BOND
     1     1     2 1   
     2     1    20 1   
     3     2     3 1   
     4     2    21 1   
     5     2    22 1   
     6     3     4 1   
     7     3    18 1   
     8     3    23 1   
     9     4     5 1   
    10     5     6 1   
    11     5    17 1   
    12     5    24 1   
    13     6     7 1   
    14     6    10 1   
    15     7     8 2   
    16     7    25 1   
    17     8     9 1   
    18     9    10 2   
    19     9    14 1   
    20    10    11 1   
    21    11    12 1   
    22    11    26 1   
    23    12    13 2   
    24    12    16 1   
    25    13    14 1   
    26    14    15 2   
    27    16    27 1   
    28    16    28 1   
    29    17    18 1   
    30    17    29 1   
    31    17    30 1   
    32    18    19 1   
    33    18    31 1   
    34    19    32 1   
@<TRIPOS>SUBSTRUCTURE
     1 GNG         1 TEMP              0 ****  ****    0 ROOT
