@<TRIPOS>MOLECULE
GNH
   42    44     1     0     0
SMALL
bcc


@<TRIPOS>ATOM
      1 N3B         -1.6810    -2.0690     5.1040 n8         1 GNH      -0.968900
      2 PB          -1.3850    -0.3960     5.2100 p5         1 GNH       1.396700
      3 O1B         -2.6110     0.4350     4.9550 o          1 GNH      -0.857000
      4 O2B         -0.5560    -0.1690     6.4400 o          1 GNH      -0.857000
      5 O3A         -0.4090    -0.2820     3.8700 os         1 GNH      -0.693800
      6 PA          -0.2670     1.0570     2.9500 p5         1 GNH       1.466800
      7 O1A         -1.2900     1.0650     1.8530 o          1 GNH      -0.856000
      8 O2A         -0.0770     2.2770     3.7960 o          1 GNH      -0.856000
      9 O5           1.1920     0.5970     2.3270 os         1 GNH      -0.540200
     10 C5           1.6530     1.2160     1.1510 c3         1 GNH       0.210400
     11 C4           2.1770     0.1750     0.1890 c5         1 GNH       0.126100
     12 O4           1.1500    -0.7460    -0.1800 os         1 GNH      -0.344600
     13 C3           2.6730     0.7800    -1.1220 c5         1 GNH       0.058100
     14 O3           4.0300     1.1130    -1.0200 oh         1 GNH      -0.585800
     15 C2           2.3890    -0.3430    -2.1250 c5         1 GNH       0.066100
     16 O2           3.3610    -1.3500    -2.0390 oh         1 GNH      -0.589800
     17 C1           1.0910    -0.9140    -1.5600 c5         1 GNH       0.265800
     18 N9          -0.0820    -0.2110    -2.0800 na         1 GNH      -0.225900
     19 C8          -1.0250     0.5000    -1.3750 cc         1 GNH       0.467400
     20 N7          -1.9800     0.9490    -2.1350 nd         1 GNH      -0.617000
     21 C7          -1.6680     0.5080    -3.3930 cd         1 GNH       0.169800
     22 C6          -2.3480     0.6790    -4.6330 c          1 GNH       0.661000
     23 O6          -3.3800     1.2880    -4.8620 o          1 GNH      -0.621500
     24 N1          -1.6640     0.0240    -5.6650 ns         1 GNH      -0.527400
     25 C10         -0.5080    -0.6920    -5.5380 cd         1 GNH       0.695800
     26 N2          -0.0360    -1.2840    -6.6450 nv         1 GNH      -0.955800
     27 N3           0.1180    -0.8410    -4.3980 nc         1 GNH      -0.684100
     28 C9          -0.4960    -0.2260    -3.3750 cc         1 GNH       0.066800
     29 HN31        -2.4110    -2.3220     4.4510 hn         1 GNH       0.329800
     30 HN32        -1.9050    -2.4750     6.0030 hn         1 GNH       0.329800
     31 H5'2         0.8720     1.8070     0.6590 h1         1 GNH       0.015700
     32 H5'1         2.4760     1.9040     1.3790 h1         1 GNH       0.015700
     33 H4           2.9890    -0.3870     0.6660 h1         1 GNH       0.082700
     34 H3           2.0680     1.6560    -1.3870 h1         1 GNH       0.059700
     35 HO3          4.2440     1.7520    -1.7080 ho         1 GNH       0.394000
     36 H2           2.2740     0.0250    -3.1500 h1         1 GNH       0.058700
     37 HO2          4.2140    -0.9210    -1.9020 ho         1 GNH       0.413000
     38 H1           0.9770    -1.9740    -1.8050 h2         1 GNH       0.101700
     39 H8          -0.9710     0.6340    -0.3020 h5         1 GNH       0.163100
     40 HN1         -2.0860     0.0960    -6.5820 hn         1 GNH       0.301500
     41 HN21         0.8810    -1.6940    -6.6030 hn         1 GNH       0.431800
     42 HN22        -0.3770    -1.0320    -7.5570 hn         1 GNH       0.431800
@<TRIPOS>BOND
     1     1     2 1   
     2     1    29 1   
     3     1    30 1   
     4     2     3 1   
     5     2     4 1   
     6     2     5 1   
     7     5     6 1   
     8     6     7 1   
     9     6     8 1   
    10     6     9 1   
    11     9    10 1   
    12    10    11 1   
    13    10    31 1   
    14    10    32 1   
    15    11    12 1   
    16    11    13 1   
    17    11    33 1   
    18    12    17 1   
    19    13    14 1   
    20    13    15 1   
    21    13    34 1   
    22    14    35 1   
    23    15    16 1   
    24    15    17 1   
    25    15    36 1   
    26    16    37 1   
    27    17    18 1   
    28    17    38 1   
    29    18    19 1   
    30    18    28 1   
    31    19    20 2   
    32    19    39 1   
    33    20    21 1   
    34    21    22 1   
    35    21    28 2   
    36    22    23 2   
    37    22    24 1   
    38    24    25 1   
    39    24    40 1   
    40    25    26 1   
    41    25    27 2   
    42    26    41 1   
    43    26    42 1   
    44    27    28 1   
@<TRIPOS>SUBSTRUCTURE
     1 GNH         1 TEMP              0 ****  ****    0 ROOT
