@<TRIPOS>MOLECULE
GNH
   42    44     1     0     0
SMALL
No Charge or Current Charge


@<TRIPOS>ATOM
      1 N3B         -0.6440    -1.4210     3.8330 n8         1 GNH      -1.079300
      2 PB          -0.8810     0.0210     3.2740 p5         1 GNH       1.396700
      3 O1B         -1.6990    -0.4240     2.1270 o          1 GNH      -0.857000
      4 O2B         -1.5590     0.5160     4.4900 o          1 GNH      -0.857000
      5 O3A          0.6230     0.3720     3.0340 os         1 GNH      -0.693800
      6 PA           0.7600     1.9360     2.8460 p5         1 GNH       1.466800
      7 O1A         -0.2800     2.5810     1.9900 o          1 GNH      -0.856000
      8 O2A          0.8990     2.6300     4.1610 o          1 GNH      -0.856000
      9 O5           2.1970     1.9510     2.1030 os         1 GNH      -0.563400
     10 C5           2.3670     1.7310     0.6880 c3         1 GNH       0.233600
     11 C4           1.9050     0.3070     0.2630 c5         1 GNH       0.149300
     12 O4           0.5040     0.3050    -0.0510 os         1 GNH      -0.391000
     13 C3           2.4970    -0.2260    -1.0740 c5         1 GNH       0.081300
     14 O3           3.8820    -0.6120    -0.9880 oh         1 GNH      -0.708000
     15 C2           1.5750    -1.4680    -1.2930 c5         1 GNH       0.089300
     16 O2           2.1310    -2.5700    -0.5610 oh         1 GNH      -0.712000
     17 C1           0.2060    -0.9510    -0.6920 c5         1 GNH       0.318300
     18 N9          -0.9370    -0.7540    -1.5840 na         1 GNH      -0.204500
     19 C8          -2.2530    -0.9860    -1.2280 cc         1 GNH       0.467400
     20 N7          -3.0790    -0.7660    -2.2520 nd         1 GNH      -0.617000
     21 C7          -2.2650    -0.3590    -3.3020 cd         1 GNH       0.104500
     22 C6          -2.6050     0.0410    -4.7020 c          1 GNH       0.518500
     23 O6          -3.7290     0.0680    -5.1870 o          1 GNH      -0.546000
     24 N1          -1.4980     0.3890    -5.4220 ns         1 GNH      -0.460400
     25 C10         -0.2490     0.3700    -4.9150 cd         1 GNH       0.695800
     26 N2           0.7300     0.7430    -5.7210 nv         1 GNH      -1.066200
     27 N3           0.1120     0.0280    -3.7020 nc         1 GNH      -0.684100
     28 C9          -0.9490    -0.3470    -2.8990 cc         1 GNH       0.081400
     29 HN31        -1.3060    -1.7580     3.1380 hn         1 GNH       0.385000
     30 HN32        -1.2230    -1.1690     4.6310 hn         1 GNH       0.385000
     31 H5'2         1.8210     2.4840     0.1050 h1         1 GNH       0.015700
     32 H5'1         3.4300     1.8360     0.4380 h1         1 GNH       0.015700
     33 H4           2.1040    -0.3950     1.0840 h1         1 GNH       0.082700
     34 H3           2.3470     0.5160    -1.8720 h1         1 GNH       0.059700
     35 HO3          4.3130    -0.3640    -1.8410 ho         1 GNH       0.493000
     36 H2           1.4910    -1.7260    -2.3570 h1         1 GNH       0.058700
     37 HO2          3.0800    -2.3010    -0.4540 ho         1 GNH       0.512000
     38 H1          -0.1290    -1.6670     0.0690 h2         1 GNH       0.101700
     39 H8          -2.5340    -1.3110    -0.2310 h5         1 GNH       0.163100
     40 HN1         -1.6490     0.6540    -6.3810 hn         1 GNH       0.301500
     41 HN21         1.6080     0.9080    -5.2440 hn         1 GNH       0.487000
     42 HN22         0.5030     1.3980    -6.4580 hn         1 GNH       0.487000
@<TRIPOS>BOND
     1     1     2 1   
     2     1    29 1   
     3     1    30 1   
     4     2     3 1   
     5     2     4 1   
     6     2     5 1   
     7     5     6 1   
     8     6     7 1   
     9     6     8 1   
    10     6     9 1   
    11     9    10 1   
    12    10    11 1   
    13    10    31 1   
    14    10    32 1   
    15    11    12 1   
    16    11    13 1   
    17    11    33 1   
    18    12    17 1   
    19    13    14 1   
    20    13    15 1   
    21    13    34 1   
    22    14    35 1   
    23    15    16 1   
    24    15    17 1   
    25    15    36 1   
    26    16    37 1   
    27    17    18 1   
    28    17    38 1   
    29    18    19 1   
    30    18    28 1   
    31    19    20 2   
    32    19    39 1   
    33    20    21 1   
    34    21    22 1   
    35    21    28 2   
    36    22    23 2   
    37    22    24 1   
    38    24    25 1   
    39    24    40 1   
    40    25    26 1   
    41    25    27 2   
    42    26    41 1   
    43    26    42 1   
    44    27    28 1   
@<TRIPOS>SUBSTRUCTURE
     1 GNH         1 TEMP              0 ****  ****    0 ROOT
