@<TRIPOS>MOLECULE
GNI
   54    57     1     0     0
SMALL
bcc


@<TRIPOS>ATOM
      1 O11          2.5130    -4.0580     3.8630 o          1 GNI      -0.658100
      2 C10          2.8000    -3.3390     4.8130 c          1 GNI       0.710700
      3 N20          1.0830    -0.3260     6.0470 nc         1 GNI      -0.360300
      4 C21          1.6500    -1.4770     6.2420 cd         1 GNI       0.429800
      5 C28          1.5580    -7.9060    10.5870 ca         1 GNI      -0.016600
      6 C27          2.6980    -7.2030    10.9480 ca         1 GNI      -0.091000
      7 C26          3.4210    -6.5500     9.9680 ca         1 GNI      -0.021600
      8 C25          3.0200    -6.5640     8.6270 ca         1 GNI       0.176100
      9 C24          1.8860    -7.3000     8.2930 ca         1 GNI      -0.217000
     10 C23          1.1540    -7.9640     9.2670 ca         1 GNI      -0.092000
     11 C13          1.7530    -1.1090     4.0850 cc         1 GNI       0.384200
     12 C14          1.9320    -0.9430     2.6430 ca         1 GNI      -0.144500
     13 C19          1.6650    -1.9820     1.7520 ca         1 GNI      -0.082500
     14 C18          1.8150    -1.7810     0.3880 ca         1 GNI      -0.144500
     15 C17          2.2330    -0.5490    -0.0980 ca         1 GNI      -0.117000
     16 C16          2.4970     0.4890     0.7860 ca         1 GNI      -0.144500
     17 C15          2.3420     0.2980     2.1500 ca         1 GNI      -0.082500
     18 N9           3.7430    -3.6660     5.7100 ns         1 GNI      -0.534900
     19 C8           4.3930    -4.9560     5.6740 c3         1 GNI       0.100000
     20 C7           3.5990    -6.0400     6.3770 c3         1 GNI       0.115400
     21 C5           2.3550    -3.3180     9.9790 ca         1 GNI      -0.129000
     22 C4           1.2040    -3.6430     9.2730 ca         1 GNI      -0.139000
     23 C3           0.9390    -3.0390     8.0540 ca         1 GNI      -0.132000
     24 C30          3.2540    -2.3740     9.4960 ca         1 GNI      -0.006300
     25 C31          2.9380    -1.7160     8.3110 ca         1 GNI      -0.093000
     26 O            5.6570    -2.6990     8.0800 o          1 GNI      -0.837300
     27 C            5.7740    -2.6660     9.3200 c          1 GNI       0.941600
     28 O3           6.7870    -2.9660     9.9790 o          1 GNI      -0.837300
     29 C2           4.5720    -2.1290    10.1490 c3         1 GNI      -0.190100
     30 C9           1.8110    -2.0630     7.5820 ca         1 GNI      -0.172500
     31 O13          1.1540    -0.0930     4.7090 os         1 GNI      -0.129100
     32 C12          2.1090    -2.0420     5.0180 cd         1 GNI      -0.383200
     33 O21          3.7630    -5.8600     7.7730 os         1 GNI      -0.272900
     34 H9           3.9570    -3.0790     6.5060 hn         1 GNI       0.382500
     35 H27          3.0260    -7.1680    11.9780 ha         1 GNI       0.155000
     36 H23          0.2710    -8.5210     8.9830 ha         1 GNI       0.136000
     37 H24          1.5480    -7.3650     7.2680 ha         1 GNI       0.139000
     38 H19          1.3300    -2.9370     2.1230 ha         1 GNI       0.155000
     39 H15          2.5590     1.1130     2.8290 ha         1 GNI       0.155000
     40 H18          1.5990    -2.5900    -0.2970 ha         1 GNI       0.128500
     41 H17          2.3500    -0.3970    -1.1630 ha         1 GNI       0.123000
     42 H16          2.8260     1.4500     0.4150 ha         1 GNI       0.128500
     43 H8C1         5.3730    -4.8510     6.1370 h1         1 GNI       0.080200
     44 H8C2         4.5510    -5.2580     4.6400 h1         1 GNI       0.080200
     45 H7C1         3.9670    -7.0290     6.0830 h1         1 GNI       0.037200
     46 H7C2         2.5480    -5.9710     6.0820 h1         1 GNI       0.037200
     47 H5           2.5680    -3.8220    10.9140 ha         1 GNI       0.127000
     48 H4           0.5270    -4.3930     9.6630 ha         1 GNI       0.118000
     49 H3           0.0690    -3.3240     7.4750 ha         1 GNI       0.120000
     50 H31          3.6090    -0.9620     7.9210 ha         1 GNI       0.149000
     51 H2C1         4.5940    -2.5620    11.1500 hc         1 GNI       0.038200
     52 H2C2         4.7360    -1.0520    10.2730 hc         1 GNI       0.038200
     53 CL26         0.6470    -8.7300    11.8110 cl         1 GNI      -0.136400
     54 CL29         4.8530    -5.6920    10.3950 cl         1 GNI      -0.020400
@<TRIPOS>BOND
     1     1     2 2   
     2     2    18 1   
     3     2    32 1   
     4     3     4 2   
     5     3    31 1   
     6     4    30 1   
     7     4    32 1   
     8     5     6 ar  
     9     5    10 ar  
    10     5    53 1   
    11     6     7 ar  
    12     6    35 1   
    13     7     8 ar  
    14     7    54 1   
    15     8     9 ar  
    16     8    33 1   
    17     9    10 ar  
    18     9    37 1   
    19    10    36 1   
    20    11    12 1   
    21    11    31 1   
    22    11    32 2   
    23    12    13 ar  
    24    12    17 ar  
    25    13    14 ar  
    26    13    38 1   
    27    14    15 ar  
    28    14    40 1   
    29    15    16 ar  
    30    15    41 1   
    31    16    17 ar  
    32    16    42 1   
    33    17    39 1   
    34    18    19 1   
    35    18    34 1   
    36    19    20 1   
    37    19    43 1   
    38    19    44 1   
    39    20    33 1   
    40    20    45 1   
    41    20    46 1   
    42    21    22 ar  
    43    21    24 ar  
    44    21    47 1   
    45    22    23 ar  
    46    22    48 1   
    47    23    30 ar  
    48    23    49 1   
    49    24    25 ar  
    50    24    29 1   
    51    25    30 ar  
    52    25    50 1   
    53    26    27 1   
    54    27    28 1   
    55    27    29 1   
    56    29    51 1   
    57    29    52 1   
@<TRIPOS>SUBSTRUCTURE
     1 GNI         1 TEMP              0 ****  ****    0 ROOT
