@<TRIPOS>MOLECULE
GNI
   54    57     1     0     0
SMALL
No Charge or Current Charge


@<TRIPOS>ATOM
      1 O11          2.8900    -3.5700     3.2080 o          1 GNI      -0.658100
      2 C10          2.8290    -3.2270     4.3780 c          1 GNI       0.643700
      3 N20          1.8730    -0.0800     6.1390 nc         1 GNI      -0.360300
      4 C21          2.1960    -1.3660     6.1370 cd         1 GNI       0.364500
      5 C28          2.0020    -8.1980    10.8780 ca         1 GNI       0.075000
      6 C27          3.1390    -7.3770    10.9510 ca         1 GNI      -0.073000
      7 C26          3.6100    -6.7280     9.7970 ca         1 GNI       0.070000
      8 C25          2.9460    -6.8940     8.5620 ca         1 GNI       0.176100
      9 C24          1.8050    -7.7260     8.4950 ca         1 GNI      -0.199000
     10 C23          1.3370    -8.3740     9.6530 ca         1 GNI      -0.074000
     11 C13          2.0610    -0.8420     4.0190 cc         1 GNI       0.274500
     12 C14          2.0860    -0.7910     2.5580 ca         1 GNI      -0.144500
     13 C19          1.1780    -1.5540     1.7940 ca         1 GNI      -0.064500
     14 C18          1.1870    -1.4710     0.3910 ca         1 GNI      -0.126500
     15 C17          2.0960    -0.6180    -0.2590 ca         1 GNI      -0.099000
     16 C16          2.9930     0.1550     0.4970 ca         1 GNI      -0.126500
     17 C15          2.9850     0.0730     1.9010 ca         1 GNI      -0.064500
     18 N9           3.2230    -4.0790     5.3820 ns         1 GNI      -0.467900
     19 C8           3.6440    -5.4760     5.1800 c3         1 GNI       0.100000
     20 C7           2.9210    -6.4460     6.1320 c3         1 GNI       0.138600
     21 C5           2.4990    -3.2700     9.9720 ca         1 GNI      -0.111000
     22 C4           1.6620    -3.8130     8.9840 ca         1 GNI      -0.121000
     23 C3           1.5750    -3.2070     7.7210 ca         1 GNI      -0.114000
     24 C30          3.2470    -2.1060     9.7090 ca         1 GNI      -0.006300
     25 C31          3.1530    -1.5030     8.4400 ca         1 GNI      -0.075000
     26 O            6.0680    -0.6510     9.7410 o          1 GNI      -0.732000
     27 C            5.5980    -1.5440    10.4310 c          1 GNI       0.731000
     28 O3           6.2270    -2.5350    10.7690 o          1 GNI      -0.732000
     29 C2           4.1080    -1.4690    10.8000 c3         1 GNI      -0.190100
     30 C9           2.3400    -2.0590     7.4290 ca         1 GNI      -0.172500
     31 O13          1.7890     0.2790     4.7540 os         1 GNI      -0.084700
     32 C12          2.3740    -1.8940     4.8330 cd         1 GNI      -0.252600
     33 O21          3.4290    -6.2190     7.4570 os         1 GNI      -0.296100
     34 H9           3.1720    -3.7250     6.3300 hn         1 GNI       0.382500
     35 H27          3.6540    -7.2460    11.8980 ha         1 GNI       0.137000
     36 H23          0.4570    -9.0120     9.6030 ha         1 GNI       0.118000
     37 H24          1.2670    -7.8770     7.5630 ha         1 GNI       0.121000
     38 H19          0.4670    -2.2130     2.2900 ha         1 GNI       0.137000
     39 H15          3.6790     0.6810     2.4790 ha         1 GNI       0.137000
     40 H18          0.4890    -2.0660    -0.1930 ha         1 GNI       0.110500
     41 H17          2.1020    -0.5540    -1.3450 ha         1 GNI       0.105000
     42 H16          3.6930     0.8200    -0.0040 ha         1 GNI       0.110500
     43 H8C1         4.7290    -5.5510     5.3330 h1         1 GNI       0.080200
     44 H8C2         3.4320    -5.7860     4.1490 h1         1 GNI       0.080200
     45 H7C1         3.1180    -7.4800     5.8200 h1         1 GNI       0.037200
     46 H7C2         1.8400    -6.2610     6.0820 h1         1 GNI       0.037200
     47 H5           2.5500    -3.7460    10.9490 ha         1 GNI       0.109000
     48 H4           1.0690    -4.6980     9.2020 ha         1 GNI       0.100000
     49 H3           0.8970    -3.6200     6.9750 ha         1 GNI       0.102000
     50 H31          3.7110    -0.5900     8.2400 ha         1 GNI       0.131000
     51 H2C1         3.9300    -2.0240    11.7290 hc         1 GNI       0.038200
     52 H2C2         3.7940    -0.4200    10.8640 hc         1 GNI       0.038200
     53 Cl26         1.4120    -9.0090    12.3220 cl         1 GNI      -0.228000
     54 Cl29         5.0480    -5.7170     9.9110 cl         1 GNI      -0.112000
@<TRIPOS>BOND
     1     1     2 2   
     2     2    18 1   
     3     2    32 1   
     4     3     4 2   
     5     3    31 1   
     6     4    30 1   
     7     4    32 1   
     8     5     6 ar  
     9     5    10 ar  
    10     5    53 1   
    11     6     7 ar  
    12     6    35 1   
    13     7     8 ar  
    14     7    54 1   
    15     8     9 ar  
    16     8    33 1   
    17     9    10 ar  
    18     9    37 1   
    19    10    36 1   
    20    11    12 1   
    21    11    31 1   
    22    11    32 2   
    23    12    13 ar  
    24    12    17 ar  
    25    13    14 ar  
    26    13    38 1   
    27    14    15 ar  
    28    14    40 1   
    29    15    16 ar  
    30    15    41 1   
    31    16    17 ar  
    32    16    42 1   
    33    17    39 1   
    34    18    19 1   
    35    18    34 1   
    36    19    20 1   
    37    19    43 1   
    38    19    44 1   
    39    20    33 1   
    40    20    45 1   
    41    20    46 1   
    42    21    22 ar  
    43    21    24 ar  
    44    21    47 1   
    45    22    23 ar  
    46    22    48 1   
    47    23    30 ar  
    48    23    49 1   
    49    24    25 ar  
    50    24    29 1   
    51    25    30 ar  
    52    25    50 1   
    53    26    27 1   
    54    27    28 1   
    55    27    29 1   
    56    29    51 1   
    57    29    52 1   
@<TRIPOS>SUBSTRUCTURE
     1 GNI         1 TEMP              0 ****  ****    0 ROOT
