@<TRIPOS>MOLECULE
GNJ
   23    24     1     0     0
SMALL
abcg2


@<TRIPOS>ATOM
      1 C13         -7.5600   -15.8720    29.7610 ca         1 GNJ      -0.039000
      2 C15         -8.4390   -13.7740    30.5380 ca         1 GNJ      -0.049000
      3 C17         -7.6120   -12.8350    32.6720 ca         1 GNJ       0.241100
      4 C04         -6.7760   -12.9680    33.7790 ca         1 GNJ      -0.369600
      5 C05         -5.9510   -14.1050    33.8360 ca         1 GNJ       0.421900
      6 C07         -6.7280   -14.9640    31.8540 ca         1 GNJ       0.378000
      7 C08         -6.7340   -15.9830    30.8560 ca         1 GNJ      -0.215500
      8 C14         -8.4150   -14.7680    29.5940 ca         1 GNJ      -0.190000
      9 C16         -7.6040   -13.8540    31.6720 ca         1 GNJ      -0.168000
     10 N06         -5.9050   -15.0640    32.9380 nb         1 GNJ      -0.704000
     11 O01         -7.5460   -10.9220    34.6660 o          1 GNJ      -0.714000
     12 O03         -6.0370   -12.0730    35.8570 o          1 GNJ      -0.714000
     13 O10         -6.0310   -18.1210    32.2120 o          1 GNJ      -0.710200
     14 O11         -4.2980   -16.9390    30.9390 o          1 GNJ      -0.710200
     15 O12         -6.0050   -18.2380    29.7790 o          1 GNJ      -0.710200
     16 O18         -8.4110   -11.7860    32.5370 oh         1 GNJ      -0.646100
     17 S09         -5.6760   -17.4380    30.9650 s6         1 GNJ       1.299100
     18 H1          -7.5440   -16.6570    29.0190 ha         1 GNJ       0.123000
     19 H2          -9.0930   -12.9200    30.4290 ha         1 GNJ       0.099000
     20 H4          -5.2910   -14.2040    34.6920 h4         1 GNJ       0.018100
     21 H5          -9.0520   -14.7140    28.7210 ha         1 GNJ       0.075000
     22 H7          -8.1980   -11.2280    33.4000 ho         1 GNJ       0.551000
     23 C02         -6.7660   -11.9250    34.8620 c          1 GNJ       0.731600
@<TRIPOS>BOND
     1     1     7 ar  
     2     1     8 ar  
     3     1    18 1   
     4     2     8 ar  
     5     2     9 ar  
     6     2    19 1   
     7     3     4 ar  
     8     3     9 ar  
     9     3    16 1   
    10     4     5 ar  
    11     4    23 1   
    12     5    10 ar  
    13     5    20 1   
    14     6     7 ar  
    15     6     9 ar  
    16     6    10 ar  
    17     7    17 1   
    18     8    21 1   
    19    11    23 1   
    20    12    23 1   
    21    13    17 1   
    22    14    17 1   
    23    15    17 1   
    24    16    22 1   
@<TRIPOS>SUBSTRUCTURE
     1 GNJ         1 TEMP              0 ****  ****    0 ROOT
