@<TRIPOS>MOLECULE
GNJ
   23    24     1     0     0
SMALL
No Charge or Current Charge


@<TRIPOS>ATOM
      1 C13         -7.5800   -15.8780    29.7210 ca         1 GNJ      -0.039000
      2 C15         -8.4460   -13.7710    30.5410 ca         1 GNJ      -0.049000
      3 C17         -7.6210   -12.8520    32.6550 ca         1 GNJ       0.241100
      4 C04         -6.7850   -12.9560    33.7730 ca         1 GNJ      -0.369600
      5 C05         -5.9640   -14.0800    33.8610 ca         1 GNJ       0.421900
      6 C07         -6.7390   -14.9780    31.8400 ca         1 GNJ       0.378000
      7 C08         -6.7320   -15.9910    30.8480 ca         1 GNJ      -0.215500
      8 C14         -8.4280   -14.7760    29.5720 ca         1 GNJ      -0.190000
      9 C16         -7.6080   -13.8640    31.6730 ca         1 GNJ      -0.168000
     10 N06         -5.9410   -15.0540    32.9310 nb         1 GNJ      -0.704000
     11 O01         -7.4660   -10.9560    34.7570 o          1 GNJ      -0.714000
     12 O03         -5.9760   -12.1070    35.7960 o          1 GNJ      -0.714000
     13 O10         -6.0790   -18.0800    32.2640 o          1 GNJ      -0.710200
     14 O11         -4.2830   -16.8640    31.0340 o          1 GNJ      -0.710200
     15 O12         -5.9340   -18.2420    29.7880 o          1 GNJ      -0.710200
     16 O18         -8.4330   -11.7690    32.5400 oh         1 GNJ      -0.646100
     17 S09         -5.6240   -17.4710    31.0030 s6         1 GNJ       1.299100
     18 H1          -7.5910   -16.6430    28.9490 ha         1 GNJ       0.123000
     19 H2          -9.1140   -12.9230    30.4040 ha         1 GNJ       0.099000
     20 H4          -5.2870   -14.2290    34.7020 h4         1 GNJ       0.018100
     21 H5          -9.0750   -14.7010    28.7010 ha         1 GNJ       0.075000
     22 H7          -8.2300   -11.2360    33.3640 ho         1 GNJ       0.551000
     23 C02         -6.7350   -11.9310    34.8600 c          1 GNJ       0.731600
@<TRIPOS>BOND
     1     1     7 ar  
     2     1     8 ar  
     3     1    18 1   
     4     2     8 ar  
     5     2     9 ar  
     6     2    19 1   
     7     3     4 ar  
     8     3     9 ar  
     9     3    16 1   
    10     4     5 ar  
    11     4    23 1   
    12     5    10 ar  
    13     5    20 1   
    14     6     7 ar  
    15     6     9 ar  
    16     6    10 ar  
    17     7    17 1   
    18     8    21 1   
    19    11    23 1   
    20    12    23 1   
    21    13    17 1   
    22    14    17 1   
    23    15    17 1   
    24    16    22 1   
@<TRIPOS>SUBSTRUCTURE
     1 GNJ         1 TEMP              0 ****  ****    0 ROOT
