@<TRIPOS>MOLECULE
GNL
   27    28     1     0     0
SMALL
No Charge or Current Charge


@<TRIPOS>ATOM
      1 C1           0.4600    -0.5370    -0.9620 c5         1 GNL       0.324300
      2 S1           1.4560    -1.5520     0.1950 ss         1 GNL      -0.465200
      3 C2           0.8280     0.9270    -0.5500 c5         1 GNL       0.079500
      4 N2           2.3180     0.9240    -0.3080 n2         1 GNL      -0.560900
      5 C3           0.0830     1.4470     0.7240 c6         1 GNL       0.184300
      6 O3           0.2780     2.8590     0.9020 oh         1 GNL      -0.620000
      7 C4          -1.4360     1.1600     0.6170 c6         1 GNL       0.105300
      8 O4          -1.9970     1.9550    -0.4550 oh         1 GNL      -0.691000
      9 C5          -1.6310    -0.3720     0.3940 c6         1 GNL       0.121300
     10 O5          -0.9590    -0.8190    -0.8100 os         1 GNL      -0.384000
     11 C6          -3.1330    -0.8010     0.3190 c3         1 GNL       0.170600
     12 O6          -3.3060    -2.2230     0.1730 oh         1 GNL      -0.701000
     13 C7           2.6610    -0.2470     0.1130 c2         1 GNL       0.480200
     14 C8           4.0710    -0.5820     0.5210 c3         1 GNL      -0.124400
     15 H1           0.7860    -0.7410    -1.9910 h2         1 GNL       0.113700
     16 H2           0.5790     1.5940    -1.3870 h1         1 GNL       0.124700
     17 H3           0.4680     0.9090     1.6040 h1         1 GNL       0.043700
     18 HO3         -0.4220     3.2710     0.3470 ho         1 GNL       0.442000
     19 H4          -1.9070     1.4340     1.5730 h1         1 GNL       0.036700
     20 HO4         -2.9780     1.9360    -0.3630 ho         1 GNL       0.503000
     21 H5          -1.1900    -0.9020     1.2510 h1         1 GNL       0.073700
     22 H6          -3.6330    -0.4570     1.2340 h1         1 GNL       0.025700
     23 H6A         -3.6030    -0.2810    -0.5270 h1         1 GNL       0.025700
     24 HO6         -4.2720    -2.3860     0.0680 ho         1 GNL       0.506000
     25 H8           4.0870    -1.0590     1.5080 hc         1 GNL       0.061700
     26 H8A          4.5280    -1.2720    -0.1970 hc         1 GNL       0.061700
     27 H8B          4.6980     0.3160     0.5730 hc         1 GNL       0.061700
@<TRIPOS>BOND
     1     1     2 1   
     2     1     3 1   
     3     1    10 1   
     4     1    15 1   
     5     2    13 1   
     6     3     4 1   
     7     3     5 1   
     8     3    16 1   
     9     4    13 2   
    10     5     6 1   
    11     5     7 1   
    12     5    17 1   
    13     6    18 1   
    14     7     8 1   
    15     7     9 1   
    16     7    19 1   
    17     8    20 1   
    18     9    10 1   
    19     9    11 1   
    20     9    21 1   
    21    11    12 1   
    22    11    22 1   
    23    11    23 1   
    24    12    24 1   
    25    13    14 1   
    26    14    25 1   
    27    14    26 1   
    28    14    27 1   
@<TRIPOS>SUBSTRUCTURE
     1 GNL         1 TEMP              0 ****  ****    0 ROOT
