@<TRIPOS>MOLECULE
GNL
   27    28     1     0     0
SMALL
bcc


@<TRIPOS>ATOM
      1 C1           0.3450    -0.6040    -0.9230 c5         1 GNL       0.253200
      2 S1           1.4270    -1.5940     0.2230 ss         1 GNL      -0.417300
      3 C2           0.8030     0.8430    -0.6520 c5         1 GNL       0.079500
      4 N2           2.2160     0.8310    -0.3420 n2         1 GNL      -0.560900
      5 C3           0.0390     1.4640     0.5200 c6         1 GNL       0.161100
      6 O3           0.3390     2.8330     0.5450 oh         1 GNL      -0.557800
      7 C4          -1.4540     1.1780     0.4070 c6         1 GNL       0.082100
      8 O4          -1.9520     1.8200    -0.7400 oh         1 GNL      -0.568800
      9 C5          -1.6340    -0.3390     0.3560 c6         1 GNL       0.098100
     10 O5          -0.9970    -0.8650    -0.7960 os         1 GNL      -0.337600
     11 C6          -3.0870    -0.7560     0.3090 c3         1 GNL       0.147400
     12 O6          -3.1630    -2.1560     0.4160 oh         1 GNL      -0.578800
     13 C7           2.6010    -0.2720     0.1490 c2         1 GNL       0.480200
     14 C8           3.9840    -0.5090     0.6590 c3         1 GNL      -0.124400
     15 H1           0.6250    -0.9020    -1.9350 h2         1 GNL       0.113700
     16 H2           0.6250     1.4400    -1.5510 h1         1 GNL       0.124700
     17 H3           0.3770     0.9680     1.4410 h1         1 GNL       0.043700
     18 HO3         -0.0220     3.2080     1.3550 ho         1 GNL       0.403000
     19 H4          -1.9450     1.5460     1.3200 h1         1 GNL       0.036700
     20 HO4         -2.9110     1.8670    -0.6830 ho         1 GNL       0.404000
     21 H5          -1.1810    -0.7630     1.2660 h1         1 GNL       0.073700
     22 H6          -3.6020    -0.2550     1.1390 h1         1 GNL       0.025700
     23 H6A         -3.5460    -0.3990    -0.6220 h1         1 GNL       0.025700
     24 HO6         -4.0880    -2.4100     0.3510 ho         1 GNL       0.407000
     25 H8           4.1150    -1.5190     1.0400 hc         1 GNL       0.061700
     26 H8A          4.7060    -0.3500    -0.1410 hc         1 GNL       0.061700
     27 H8B          4.2140     0.1950     1.4580 hc         1 GNL       0.061700
@<TRIPOS>BOND
     1     1     2 1   
     2     1     3 1   
     3     1    10 1   
     4     1    15 1   
     5     2    13 1   
     6     3     4 1   
     7     3     5 1   
     8     3    16 1   
     9     4    13 2   
    10     5     6 1   
    11     5     7 1   
    12     5    17 1   
    13     6    18 1   
    14     7     8 1   
    15     7     9 1   
    16     7    19 1   
    17     8    20 1   
    18     9    10 1   
    19     9    11 1   
    20     9    21 1   
    21    11    12 1   
    22    11    22 1   
    23    11    23 1   
    24    12    24 1   
    25    13    14 1   
    26    14    25 1   
    27    14    26 1   
    28    14    27 1   
@<TRIPOS>SUBSTRUCTURE
     1 GNL         1 TEMP              0 ****  ****    0 ROOT
