@<TRIPOS>MOLECULE
GNM
   20    21     1     0     0
SMALL
abcg2


@<TRIPOS>ATOM
      1 C10          2.1710     1.8260     0.0420 ca         1 GNM      -0.039000
      2 C13         -0.5590     1.2280     0.0180 ca         1 GNM      -0.222600
      3 C02         -3.8100    -0.9800    -0.0350 c          1 GNM       0.726200
      4 C04         -2.3790    -0.4590    -0.0200 cc         1 GNM      -0.291400
      5 C05         -1.3790    -1.3850    -0.0320 cd         1 GNM       0.012000
      6 C07          0.3870     0.1930     0.0030 ca         1 GNM       0.352000
      7 C08          1.7560     0.5130     0.0160 ca         1 GNM      -0.105900
      8 C11          1.2270     2.8540     0.0560 ca         1 GNM      -0.194000
      9 C12         -0.1160     2.5540     0.0440 ca         1 GNM      -0.010000
     10 C14         -2.0170     0.9450     0.0050 c          1 GNM       0.590900
     11 N06         -0.0680    -1.0940    -0.0220 na         1 GNM      -0.793000
     12 O01         -3.9360    -2.2230    -0.0390 o          1 GNM      -0.711000
     13 O03         -4.7310    -0.1470    -0.0430 o          1 GNM      -0.711000
     14 O15         -2.8060     1.8850     0.0180 o          1 GNM      -0.539100
     15 BR9          3.0530    -0.8570     0.0010 br         1 GNM      -0.137100
     16 H1           3.2260     2.0640     0.0520 ha         1 GNM       0.110000
     17 H4           1.5610     3.8820     0.0760 ha         1 GNM       0.105000
     18 H5          -0.8500     3.3480     0.0560 ha         1 GNM       0.135000
     19 H2           0.5850    -1.8630    -0.0340 hn         1 GNM       0.497000
     20 H3          -1.6080    -2.4410    -0.0510 h4         1 GNM       0.225000
@<TRIPOS>BOND
     1     1     7 ar  
     2     1     8 ar  
     3     1    16 1   
     4     2     6 ar  
     5     2     9 ar  
     6     2    10 1   
     7     3     4 1   
     8     3    12 1   
     9     3    13 1   
    10     4     5 2   
    11     4    10 1   
    12     5    11 1   
    13     5    20 1   
    14     6     7 ar  
    15     6    11 1   
    16     7    15 1   
    17     8     9 ar  
    18     8    17 1   
    19     9    18 1   
    20    10    14 2   
    21    11    19 1   
@<TRIPOS>SUBSTRUCTURE
     1 GNM         1 TEMP              0 ****  ****    0 ROOT
