@<TRIPOS>MOLECULE
GNM
   20    21     1     0     0
SMALL
No Charge or Current Charge


@<TRIPOS>ATOM
      1 C10          2.1680     1.8370     0.0430 ca         1 GNM      -0.039000
      2 C13         -0.5840     1.2540     0.0170 ca         1 GNM      -0.222600
      3 C02         -3.7820    -0.9350    -0.0340 c          1 GNM       0.726200
      4 C04         -2.3580    -0.4950    -0.0210 cc         1 GNM      -0.291400
      5 C05         -1.3890    -1.4940    -0.0330 cd         1 GNM       0.012000
      6 C07          0.3380     0.2070     0.0040 ca         1 GNM       0.352000
      7 C08          1.7220     0.5060     0.0170 ca         1 GNM      -0.105900
      8 C11          1.2360     2.8820     0.0560 ca         1 GNM      -0.194000
      9 C12         -0.1370     2.5950     0.0430 ca         1 GNM      -0.010000
     10 C14         -2.0290     0.9410     0.0040 c          1 GNM       0.590900
     11 N06         -0.0230    -1.1400    -0.0220 na         1 GNM      -0.793000
     12 O01         -4.0140    -2.1350    -0.0550 o          1 GNM      -0.711000
     13 O03         -4.6940    -0.1250    -0.0240 o          1 GNM      -0.711000
     14 O15         -2.8440     1.8560     0.0140 o          1 GNM      -0.539100
     15 Br9          3.0480    -0.8900    -0.0000 br         1 GNM      -0.137100
     16 H1           3.2330     2.0570     0.0530 ha         1 GNM       0.110000
     17 H4           1.5760     3.9150     0.0760 ha         1 GNM       0.105000
     18 H5          -0.8480     3.4190     0.0540 ha         1 GNM       0.135000
     19 H2           0.7120    -1.8490    -0.0310 hn         1 GNM       0.497000
     20 H3          -1.6240    -2.5610    -0.0510 h4         1 GNM       0.225000
@<TRIPOS>BOND
     1     1     7 ar  
     2     1     8 ar  
     3     1    16 1   
     4     2     6 ar  
     5     2     9 ar  
     6     2    10 1   
     7     3     4 1   
     8     3    12 1   
     9     3    13 1   
    10     4     5 2   
    11     4    10 1   
    12     5    11 1   
    13     5    20 1   
    14     6     7 ar  
    15     6    11 1   
    16     7    15 1   
    17     8     9 ar  
    18     8    17 1   
    19     9    18 1   
    20    10    14 2   
    21    11    19 1   
@<TRIPOS>SUBSTRUCTURE
     1 GNM         1 TEMP              0 ****  ****    0 ROOT
