@<TRIPOS>MOLECULE
GNO
   55    58     1     0     0
SMALL
No Charge or Current Charge


@<TRIPOS>ATOM
      1 O3          80.3610   117.8840   124.6120 os         1 GNO      -0.289100
      2 C1          85.0640   115.8050   120.8880 c3         1 GNO       0.267100
      3 C10         87.0910   112.4150   119.0520 ca         1 GNO       0.024800
      4 C11         86.7210   113.5350   118.2790 ca         1 GNO      -0.116000
      5 C12         86.8210   112.4200   120.4370 ca         1 GNO      -0.116000
      6 C13         83.0440   113.6590   118.2660 ca         1 GNO       0.020000
      7 C14         81.6200   118.0230   124.0630 ca         1 GNO       0.177100
      8 C15         83.2930   112.2460   120.2200 ca         1 GNO       0.438900
      9 C16         83.9780   118.6290   124.1880 ca         1 GNO      -0.077000
     10 C17         82.7230   118.4980   124.8050 ca         1 GNO      -0.209000
     11 C18         83.4000   112.5480   117.4890 ca         1 GNO      -0.193000
     12 C19         83.6830   111.3310   118.1270 ca         1 GNO       0.373900
     13 C20         87.3370   110.8090   117.2080 cc         1 GNO      -0.156000
     14 C21         88.2300   109.7890   117.0360 cd         1 GNO      -0.234000
     15 C22         80.0810   118.2110   125.9950 c3         1 GNO      -0.001400
     16 C23         89.0730   109.7530   118.1730 cd         1 GNO       0.239900
     17 C24         78.5930   117.9770   126.3920 c          1 GNO       0.730000
     18 C3          85.7870   114.6220   120.2540 ca         1 GNO      -0.127300
     19 C4          83.0500   117.7920   122.0880 ca         1 GNO      -0.086300
     20 C5          83.0010   113.4910   119.6590 ca         1 GNO      -0.337500
     21 C6          86.0780   114.6320   118.8770 ca         1 GNO      -0.082000
     22 C7          86.1760   113.5170   121.0350 ca         1 GNO      -0.082000
     23 C8          81.7900   117.6790   122.7120 ca         1 GNO      -0.141000
     24 C9          84.1390   118.2820   122.8370 ca         1 GNO      -0.182000
     25 N1          83.6990   116.0410   120.3590 n3         1 GNO      -0.786500
     26 N2          87.7070   111.3100   118.4490 na         1 GNO       0.231000
     27 N3          83.6240   111.1700   119.4680 nb         1 GNO      -0.684000
     28 N4          88.7760   110.6870   119.0580 nc         1 GNO      -0.514800
     29 O1          81.2690   115.3320   120.2490 o          1 GNO      -0.527500
     30 O2          82.7470   114.4510   122.1400 o          1 GNO      -0.527500
     31 O4          77.8020   117.5580   125.5540 o          1 GNO      -0.708500
     32 O5          78.2700   118.2270   127.5460 o          1 GNO      -0.708500
     33 S1          82.5580   114.8300   120.7360 sy         1 GNO       1.197600
     34 H1          85.0420   115.6810   121.9800 h1         1 GNO       0.081700
     35 H2          85.6910   116.6870   120.6980 h1         1 GNO       0.081700
     36 H5          82.8200   114.6190   117.8030 ha         1 GNO       0.132000
     37 H6          83.2610   112.0830   121.2970 h4         1 GNO       0.049100
     38 H7          84.8270   119.0010   124.7580 ha         1 GNO       0.095000
     39 H8          82.6230   118.7730   125.8500 ha         1 GNO       0.124000
     40 H9          83.4590   112.6230   116.4070 ha         1 GNO       0.122000
     41 H10         83.9610   110.4520   117.5460 h4         1 GNO       0.013100
     42 H13         86.5250   111.1950   116.6050 h4         1 GNO       0.153000
     43 H14         88.2870   109.1220   116.1810 ha         1 GNO       0.142000
     44 H15         80.7020   117.5980   126.6610 h1         1 GNO       0.016700
     45 H16         80.3120   119.2670   126.1870 h1         1 GNO       0.016700
     46 H17         89.8930   109.0740   118.3710 h4         1 GNO       0.035100
     47 H18         85.7870   115.4850   118.2670 ha         1 GNO       0.126000
     48 H19         85.9650   113.4970   122.1030 ha         1 GNO       0.126000
     49 H20         80.9330   117.3200   122.1480 ha         1 GNO       0.133000
     50 H21         85.1150   118.3970   122.3720 ha         1 GNO       0.092000
     51 C2          83.2240   117.4230   120.6100 c3         1 GNO       0.287100
     52 H3          86.9290   113.5600   117.2120 ha         1 GNO       0.130000
     53 H11         83.9390   118.1320   120.1700 h1         1 GNO       0.049700
     54 H12         82.2780   117.6080   120.0840 h1         1 GNO       0.049700
     55 H4          87.0980   111.5660   121.0500 ha         1 GNO       0.130000
@<TRIPOS>BOND
     1     1     7 1   
     2     1    15 1   
     3     2    18 1   
     4     2    25 1   
     5     2    34 1   
     6     2    35 1   
     7     3     4 ar  
     8     3     5 ar  
     9     3    26 1   
    10     4    21 ar  
    11     4    52 1   
    12     5    22 ar  
    13     5    55 1   
    14     6    11 ar  
    15     6    20 ar  
    16     6    36 1   
    17     7    10 ar  
    18     7    23 ar  
    19     8    20 ar  
    20     8    27 ar  
    21     8    37 1   
    22     9    10 ar  
    23     9    24 ar  
    24     9    38 1   
    25    10    39 1   
    26    11    12 ar  
    27    11    40 1   
    28    12    27 ar  
    29    12    41 1   
    30    13    14 2   
    31    13    26 1   
    32    13    42 1   
    33    14    16 1   
    34    14    43 1   
    35    15    17 1   
    36    15    44 1   
    37    15    45 1   
    38    16    28 2   
    39    16    46 1   
    40    17    31 1   
    41    17    32 1   
    42    18    21 ar  
    43    18    22 ar  
    44    19    23 ar  
    45    19    24 ar  
    46    19    51 1   
    47    20    33 1   
    48    21    47 1   
    49    22    48 1   
    50    23    49 1   
    51    24    50 1   
    52    25    33 1   
    53    25    51 1   
    54    26    28 1   
    55    29    33 2   
    56    30    33 2   
    57    51    53 1   
    58    51    54 1   
@<TRIPOS>SUBSTRUCTURE
     1 GNO         1 TEMP              0 ****  ****    0 ROOT
