@<TRIPOS>MOLECULE
GNO
   55    58     1     0     0
SMALL
abcg2


@<TRIPOS>ATOM
      1 O3          80.9830   117.7320   124.9130 os         1 GNO      -0.289100
      2 C1          84.5730   114.8440   121.8870 c3         1 GNO       0.267100
      3 C10         86.9850   112.2020   119.5080 ca         1 GNO       0.024800
      4 C11         86.6500   113.4630   119.0240 ca         1 GNO      -0.116000
      5 C12         86.5800   111.8160   120.7780 ca         1 GNO      -0.116000
      6 C13         82.8010   114.1610   118.0380 ca         1 GNO       0.020000
      7 C14         81.9210   118.1370   124.0430 ca         1 GNO       0.177100
      8 C15         83.2960   112.1590   119.2620 ca         1 GNO       0.438900
      9 C16         83.6040   119.6320   123.2000 ca         1 GNO      -0.077000
     10 C17         82.6550   119.3180   124.1640 ca         1 GNO      -0.209000
     11 C18         83.3010   113.5280   116.9150 ca         1 GNO      -0.193000
     12 C19         83.7790   112.2310   117.0410 ca         1 GNO       0.373900
     13 C20         87.7240   111.2360   117.3520 cc         1 GNO      -0.156000
     14 C21         88.5710   110.2120   117.0160 cd         1 GNO      -0.234000
     15 C22         80.5930   118.6090   125.9520 c3         1 GNO      -0.001400
     16 C23         89.0340   109.7250   118.2520 cd         1 GNO       0.239900
     17 C24         79.4090   118.0280   126.7510 c          1 GNO       0.730000
     18 C3          85.4500   113.9340   121.0670 ca         1 GNO      -0.127300
     19 C4          83.1020   117.6180   121.9960 ca         1 GNO      -0.086300
     20 C5          82.8120   113.4600   119.2360 ca         1 GNO      -0.337500
     21 C6          85.8850   114.3140   119.8000 ca         1 GNO      -0.082000
     22 C7          85.8170   112.6830   121.5450 ca         1 GNO      -0.082000
     23 C8          82.1550   117.2950   122.9540 ca         1 GNO      -0.141000
     24 C9          83.8370   118.7940   122.1210 ca         1 GNO      -0.182000
     25 N1          83.3920   115.3170   121.1680 n3         1 GNO      -0.786500
     26 N2          87.7230   111.3130   118.7040 na         1 GNO       0.231000
     27 N3          83.7700   111.5550   118.1830 nb         1 GNO      -0.684000
     28 N4          88.5160   110.3940   119.2600 nc         1 GNO      -0.514800
     29 O1          81.0440   114.9900   120.3880 o          1 GNO      -0.527500
     30 O2          82.1920   113.2060   121.7460 o          1 GNO      -0.527500
     31 O4          79.0070   116.8910   126.4660 o          1 GNO      -0.708500
     32 O5          78.9850   118.8030   127.6300 o          1 GNO      -0.708500
     33 S1          82.2430   114.2390   120.7260 sy         1 GNO       1.197600
     34 H1          84.2830   114.3520   122.8160 h1         1 GNO       0.081700
     35 H2          85.1260   115.7390   122.1770 h1         1 GNO       0.081700
     36 H5          82.4210   115.1720   117.9760 ha         1 GNO       0.132000
     37 H6          83.3020   111.5870   120.1810 h4         1 GNO       0.049100
     38 H7          84.1750   120.5470   123.3030 ha         1 GNO       0.095000
     39 H8          82.5070   119.9930   124.9960 ha         1 GNO       0.124000
     40 H9          83.3200   114.0270   115.9570 ha         1 GNO       0.122000
     41 H10         84.1820   111.7140   116.1770 h4         1 GNO       0.013100
     42 H13         87.1180   111.8840   116.7400 h4         1 GNO       0.153000
     43 H14         88.8140   109.8610   116.0270 ha         1 GNO       0.142000
     44 H15         81.4290   118.7890   126.6400 h1         1 GNO       0.016700
     45 H16         80.3030   119.5840   125.5430 h1         1 GNO       0.016700
     46 H17         89.7270   108.9180   118.4360 h4         1 GNO       0.035100
     47 H18         85.6270   115.2870   119.4020 ha         1 GNO       0.126000
     48 H19         85.4850   112.3650   122.5260 ha         1 GNO       0.126000
     49 H20         81.5760   116.3820   122.8740 ha         1 GNO       0.133000
     50 H21         84.5850   119.0490   121.3810 ha         1 GNO       0.092000
     51 C2          83.3170   116.7220   120.7990 c3         1 GNO       0.287100
     52 H3          86.9880   113.7920   118.0500 ha         1 GNO       0.130000
     53 H11         84.2360   117.0110   120.2850 h1         1 GNO       0.049700
     54 H12         82.5100   116.8680   120.0820 h1         1 GNO       0.049700
     55 H4          86.8370   110.8370   121.1580 ha         1 GNO       0.130000
@<TRIPOS>BOND
     1     1     7 1   
     2     1    15 1   
     3     2    18 1   
     4     2    25 1   
     5     2    34 1   
     6     2    35 1   
     7     3     4 ar  
     8     3     5 ar  
     9     3    26 1   
    10     4    21 ar  
    11     4    52 1   
    12     5    22 ar  
    13     5    55 1   
    14     6    11 ar  
    15     6    20 ar  
    16     6    36 1   
    17     7    10 ar  
    18     7    23 ar  
    19     8    20 ar  
    20     8    27 ar  
    21     8    37 1   
    22     9    10 ar  
    23     9    24 ar  
    24     9    38 1   
    25    10    39 1   
    26    11    12 ar  
    27    11    40 1   
    28    12    27 ar  
    29    12    41 1   
    30    13    14 2   
    31    13    26 1   
    32    13    42 1   
    33    14    16 1   
    34    14    43 1   
    35    15    17 1   
    36    15    44 1   
    37    15    45 1   
    38    16    28 2   
    39    16    46 1   
    40    17    31 1   
    41    17    32 1   
    42    18    21 ar  
    43    18    22 ar  
    44    19    23 ar  
    45    19    24 ar  
    46    19    51 1   
    47    20    33 1   
    48    21    47 1   
    49    22    48 1   
    50    23    49 1   
    51    24    50 1   
    52    25    33 1   
    53    25    51 1   
    54    26    28 1   
    55    29    33 2   
    56    30    33 2   
    57    51    53 1   
    58    51    54 1   
@<TRIPOS>SUBSTRUCTURE
     1 GNO         1 TEMP              0 ****  ****    0 ROOT
