@<TRIPOS>MOLECULE
GNP
   45    47     1     0     0
SMALL
abcg2


@<TRIPOS>ATOM
      1 PG           5.1610    30.9390    21.4760 p5         1 GNP       1.285800
      2 O1G          5.3490    30.3960    22.8950 o          1 GNP      -0.934500
      3 O2G          4.4140    32.2700    21.4010 o          1 GNP      -0.934500
      4 O3G          4.6750    29.9000    20.4610 o          1 GNP      -0.934500
      5 N3B          6.8590    31.3330    21.0240 n7         1 GNP      -0.955600
      6 PB           7.4100    31.3650    19.4360 p5         1 GNP       1.441700
      7 O1B          7.8860    30.0220    18.9460 o          1 GNP      -0.892000
      8 O2B          6.4900    32.1890    18.5760 o          1 GNP      -0.892000
      9 O3A          8.8450    32.2300    19.6260 os         1 GNP      -0.733800
     10 PA           9.0680    33.8170    19.3440 p5         1 GNP       1.460800
     11 O1A          9.1930    34.0880    17.8780 o          1 GNP      -0.856500
     12 O2A          8.1880    34.6540    20.2230 o          1 GNP      -0.856500
     13 O5          10.6290    33.9140    19.9030 os         1 GNP      -0.625400
     14 C5          10.9100    33.8130    21.2740 c3         1 GNP       0.226600
     15 C4          12.3680    34.1270    21.5280 c5         1 GNP       0.157300
     16 O4          13.2100    33.1270    20.9430 os         1 GNP      -0.439000
     17 C3          12.8450    35.4650    20.9610 c5         1 GNP       0.148300
     18 O3          13.8300    35.9750    21.8260 oh         1 GNP      -0.746000
     19 C2          13.4430    35.0490    19.6210 c5         1 GNP       0.077300
     20 O2          14.3740    35.9830    19.1630 oh         1 GNP      -0.745000
     21 C1          14.0540    33.6880    19.9830 c5         1 GNP       0.293300
     22 N9          14.1600    32.7840    18.8620 na         1 GNP      -0.177500
     23 C8          13.1310    32.1470    18.2120 cc         1 GNP       0.491400
     24 N7          13.5380    31.4280    17.2110 nd         1 GNP      -0.616000
     25 C7          14.8990    31.6000    17.1880 cd         1 GNP       0.100500
     26 C6          15.8840    31.0790    16.3000 c          1 GNP       0.519500
     27 O6          15.7380    30.3440    15.3390 o          1 GNP      -0.565000
     28 N1          17.1610    31.5330    16.6610 ns         1 GNP      -0.462400
     29 C10         17.4550    32.3720    17.6980 cd         1 GNP       0.643800
     30 N2          18.7480    32.6730    17.8980 nv         1 GNP      -1.067200
     31 N3          16.5430    32.8560    18.5030 nc         1 GNP      -0.667100
     32 C9          15.3020    32.4410    18.2080 cc         1 GNP       0.072400
     33 HNB3         7.4960    30.8240    21.6260 hn         1 GNP       0.375000
     34 H5'2        10.3100    34.5150    21.8640 h1         1 GNP       0.049700
     35 H5'1        10.6940    32.8070    21.6570 h1         1 GNP       0.049700
     36 H4          12.5170    34.1160    22.6130 h1         1 GNP       0.047700
     37 H3          12.0150    36.1720    20.8350 h1         1 GNP       0.088700
     38 HO3         14.2670    36.7140    21.3880 ho         1 GNP       0.493000
     39 H2          12.6310    34.8980    18.9030 h1         1 GNP       0.130700
     40 HO2         14.5730    35.8010    18.2390 ho         1 GNP       0.507000
     41 H1          15.0730    33.8260    20.3630 h2         1 GNP       0.060700
     42 H8          12.1060    32.2550    18.5320 h5         1 GNP       0.151100
     43 HN1         17.9210    31.1930    16.0840 hn         1 GNP       0.286500
     44 HN21        18.9520    33.4090    18.5530 hn         1 GNP       0.471500
     45 HN22        19.4360    32.5140    17.1810 hn         1 GNP       0.471500
@<TRIPOS>BOND
     1     1     2 1   
     2     1     3 1   
     3     1     4 1   
     4     1     5 1   
     5     5     6 1   
     6     5    33 1   
     7     6     7 1   
     8     6     8 1   
     9     6     9 1   
    10     9    10 1   
    11    10    11 1   
    12    10    12 1   
    13    10    13 1   
    14    13    14 1   
    15    14    15 1   
    16    14    34 1   
    17    14    35 1   
    18    15    16 1   
    19    15    17 1   
    20    15    36 1   
    21    16    21 1   
    22    17    18 1   
    23    17    19 1   
    24    17    37 1   
    25    18    38 1   
    26    19    20 1   
    27    19    21 1   
    28    19    39 1   
    29    20    40 1   
    30    21    22 1   
    31    21    41 1   
    32    22    23 1   
    33    22    32 1   
    34    23    24 2   
    35    23    42 1   
    36    24    25 1   
    37    25    26 1   
    38    25    32 2   
    39    26    27 2   
    40    26    28 1   
    41    28    29 1   
    42    28    43 1   
    43    29    30 1   
    44    29    31 2   
    45    30    44 1   
    46    30    45 1   
    47    31    32 1   
@<TRIPOS>SUBSTRUCTURE
     1 GNP         1 TEMP              0 ****  ****    0 ROOT
