@<TRIPOS>MOLECULE
GNP
   45    47     1     0     0
SMALL
No Charge or Current Charge


@<TRIPOS>ATOM
      1 PG           5.0100    31.3150    21.4100 p5         1 GNP       1.285800
      2 O1G          4.8410    30.1820    22.3520 o          1 GNP      -0.934500
      3 O2G          4.6610    32.5970    22.0760 o          1 GNP      -0.934500
      4 O3G          4.2160    31.0630    20.1840 o          1 GNP      -0.934500
      5 N3B          6.5660    31.2930    21.0820 n7         1 GNP      -0.955600
      6 PB           7.1740    32.0360    19.8100 p5         1 GNP       1.441700
      7 O1B          7.2030    30.9650    18.7780 o          1 GNP      -0.892000
      8 O2B          6.4460    33.2860    19.4490 o          1 GNP      -0.892000
      9 O3A          8.5820    32.2500    20.4800 os         1 GNP      -0.733800
     10 PA           9.4970    33.2410    19.6640 p5         1 GNP       1.460800
     11 O1A          9.5350    33.0030    18.1920 o          1 GNP      -0.856500
     12 O2A          9.2920    34.6760    20.0120 o          1 GNP      -0.856500
     13 O5          10.8980    32.7290    20.2730 os         1 GNP      -0.625400
     14 C5          11.2870    33.1070    21.6070 c3         1 GNP       0.226600
     15 C4          12.5830    33.9810    21.5990 c5         1 GNP       0.157300
     16 O4          13.6710    33.2610    20.9540 os         1 GNP      -0.439000
     17 C3          12.4950    35.3630    20.8630 c5         1 GNP       0.148300
     18 O3          13.4390    36.3270    21.3520 oh         1 GNP      -0.746000
     19 C2          12.8900    34.9650    19.4130 c5         1 GNP       0.077300
     20 O2          13.3510    36.1210    18.6680 oh         1 GNP      -0.745000
     21 C1          14.0100    33.9040    19.7030 c5         1 GNP       0.293300
     22 N9          14.2570    32.8850    18.6820 na         1 GNP      -0.177500
     23 C8          13.3020    32.1400    18.0120 cc         1 GNP       0.491400
     24 N7          13.8640    31.3320    17.1100 nd         1 GNP      -0.616000
     25 C7          15.2300    31.5710    17.2010 cd         1 GNP       0.100500
     26 C6          16.3800    30.9790    16.4500 c          1 GNP       0.519500
     27 O6          16.3040    30.1230    15.5780 o          1 GNP      -0.565000
     28 N1          17.5780    31.5050    16.8450 ns         1 GNP      -0.462400
     29 C10         17.6950    32.4480    17.8050 cd         1 GNP       0.643800
     30 N2          18.9190    32.8740    18.0780 nv         1 GNP      -1.067200
     31 N3          16.7270    33.0040    18.4950 nc         1 GNP      -0.667100
     32 C9          15.4750    32.5250    18.1600 cc         1 GNP       0.072400
     33 HNB3         6.5940    30.4190    20.5900 hn         1 GNP       0.375000
     34 H5'2        10.4920    33.6640    22.1200 h1         1 GNP       0.049700
     35 H5'1        11.4840    32.2080    22.2040 h1         1 GNP       0.049700
     36 H4          12.8580    34.1370    22.6500 h1         1 GNP       0.047700
     37 H3          11.4760    35.7730    20.9030 h1         1 GNP       0.088700
     38 HO3         13.7540    36.7530    20.5140 ho         1 GNP       0.493000
     39 H2          12.0340    34.4970    18.9080 h1         1 GNP       0.130700
     40 HO2         13.4990    35.8420    17.7320 ho         1 GNP       0.507000
     41 H1          14.9630    34.4310    19.8410 h2         1 GNP       0.060700
     42 H8          12.2420    32.2220    18.2220 h5         1 GNP       0.151100
     43 HN1         18.4010    31.1420    16.3910 hn         1 GNP       0.286500
     44 HN21        18.9560    33.7140    18.6420 hn         1 GNP       0.471500
     45 HN22        19.6200    32.7930    17.3520 hn         1 GNP       0.471500
@<TRIPOS>BOND
     1     1     2 1   
     2     1     3 1   
     3     1     4 1   
     4     1     5 1   
     5     5     6 1   
     6     5    33 1   
     7     6     7 1   
     8     6     8 1   
     9     6     9 1   
    10     9    10 1   
    11    10    11 1   
    12    10    12 1   
    13    10    13 1   
    14    13    14 1   
    15    14    15 1   
    16    14    34 1   
    17    14    35 1   
    18    15    16 1   
    19    15    17 1   
    20    15    36 1   
    21    16    21 1   
    22    17    18 1   
    23    17    19 1   
    24    17    37 1   
    25    18    38 1   
    26    19    20 1   
    27    19    21 1   
    28    19    39 1   
    29    20    40 1   
    30    21    22 1   
    31    21    41 1   
    32    22    23 1   
    33    22    32 1   
    34    23    24 2   
    35    23    42 1   
    36    24    25 1   
    37    25    26 1   
    38    25    32 2   
    39    26    27 2   
    40    26    28 1   
    41    28    29 1   
    42    28    43 1   
    43    29    30 1   
    44    29    31 2   
    45    30    44 1   
    46    30    45 1   
    47    31    32 1   
@<TRIPOS>SUBSTRUCTURE
     1 GNP         1 TEMP              0 ****  ****    0 ROOT
