@<TRIPOS>MOLECULE
GNQ
   70    72     1     0     0
SMALL
No Charge or Current Charge


@<TRIPOS>ATOM
      1 O5           3.7630    -1.0680    -0.0190 o          1 GNQ      -0.513500
      2 S            2.6060    -1.2660    -0.9030 s6         1 GNQ       1.067000
      3 O4           2.8220    -1.4570    -2.3430 o          1 GNQ      -0.513500
      4 C17          1.6620    -2.6790    -0.2820 c3         1 GNQ      -0.223100
      5 C18          2.4030    -4.0100    -0.3500 ca         1 GNQ      -0.093300
      6 C20          2.2970    -4.8240    -1.4950 ca         1 GNQ      -0.080500
      7 C21          2.9790    -6.0520    -1.5570 ca         1 GNQ      -0.109500
      8 C22          3.7700    -6.4720    -0.4740 ca         1 GNQ      -0.094000
      9 C23          3.8780    -5.6640     0.6700 ca         1 GNQ      -0.109500
     10 C19          3.1960    -4.4370     0.7330 ca         1 GNQ      -0.080500
     11 C16          1.4880     0.1360    -0.7000 c3         1 GNQ      -0.316400
     12 CA           2.0280     1.4660    -1.3140 c3         1 GNQ       0.089700
     13 N            3.2930     1.9060    -0.6850 ns         1 GNQ      -0.527900
     14 C11          3.4550     2.2410     0.6410 c          1 GNQ       0.667100
     15 O3           2.5240     2.2290     1.4320 o          1 GNQ      -0.645100
     16 N3           4.7610     2.6020     1.0320 n          1 GNQ      -0.387800
     17 C15          5.9420     2.4210     0.1200 c6         1 GNQ       0.056500
     18 C14          7.2630     3.0760     0.6000 c6         1 GNQ       0.143600
     19 O2           7.4710     2.8410     2.0030 os         1 GNQ      -0.443000
     20 C13          6.4370     3.4330     2.8070 c6         1 GNQ       0.143600
     21 C12          5.0630     2.7920     2.4880 c6         1 GNQ       0.056500
     22 C            0.9820     2.6380    -1.3680 c          1 GNQ       0.604100
     23 O            1.2730     3.8130    -1.1700 o          1 GNQ      -0.583100
     24 N2          -0.3130     2.2640    -1.6690 ns         1 GNQ      -0.502900
     25 C9          -1.4620     3.1780    -1.7480 c3         1 GNQ       0.102700
     26 C10         -1.5060     3.8770    -3.1220 c3         1 GNQ      -0.111100
     27 C8          -2.7910     2.4400    -1.4260 c3         1 GNQ       0.202800
     28 N1          -2.7250     1.7340    -0.1300 nu         1 GNQ      -0.964200
     29 C7          -3.7020     0.9270     0.4500 ca         1 GNQ       0.340000
     30 C6          -3.4170     0.2810     1.6600 ca         1 GNQ      -0.190500
     31 C5          -4.3800    -0.5420     2.2710 ca         1 GNQ      -0.049000
     32 C4          -4.9590     0.7470    -0.1500 ca         1 GNQ      -0.190500
     33 C3          -5.9280    -0.0750     0.4540 ca         1 GNQ      -0.049000
     34 C2          -5.6400    -0.7270     1.6760 ca         1 GNQ       0.024100
     35 O1          -6.5390    -1.5510     2.3330 os         1 GNQ      -0.392100
     36 C1          -7.8700    -1.8440     1.8560 c3         1 GNQ       0.509000
     37 F1          -7.8550    -2.4540     0.6490 f          1 GNQ      -0.112667
     38 F2          -8.5080    -2.6760     2.7080 f          1 GNQ      -0.112667
     39 F3          -8.6300    -0.7300     1.7520 f          1 GNQ      -0.112667
     40 H171         1.3980    -2.4370     0.7530 h1         1 GNQ       0.098200
     41 H172         0.7440    -2.7190    -0.8790 h1         1 GNQ       0.098200
     42 H20          1.6870    -4.5060    -2.3380 ha         1 GNQ       0.120500
     43 H21          2.8950    -6.6760    -2.4430 ha         1 GNQ       0.118000
     44 H22          4.2980    -7.4230    -0.5220 ha         1 GNQ       0.116000
     45 H23          4.4900    -5.9890     1.5090 ha         1 GNQ       0.118000
     46 H19          3.2860    -3.8170     1.6220 ha         1 GNQ       0.120500
     47 H161         1.3030     0.2380     0.3740 h1         1 GNQ       0.108200
     48 H162         0.5630    -0.1760    -1.1940 h1         1 GNQ       0.108200
     49 HA           2.2510     1.2630    -2.3710 h1         1 GNQ       0.081700
     50 HN           4.1180     1.9760    -1.2640 hn         1 GNQ       0.336500
     51 H151         6.1160     1.3430    -0.0080 h1         1 GNQ       0.059700
     52 H152         5.7110     2.8340    -0.8720 h1         1 GNQ       0.059700
     53 H141         8.1110     2.6670     0.0340 h1         1 GNQ       0.053450
     54 H142         7.2280     4.1600     0.4200 h1         1 GNQ       0.053450
     55 H131         6.6780     3.2920     3.8710 h1         1 GNQ       0.053450
     56 H132         6.4010     4.5150     2.6090 h1         1 GNQ       0.053450
     57 H121         4.2800     3.4130     2.9450 h1         1 GNQ       0.059700
     58 H122         5.0170     1.8100     2.9780 h1         1 GNQ       0.059700
     59 HN2         -0.4840     1.2770    -1.8180 hn         1 GNQ       0.314500
     60 H9          -1.3310     3.9560    -0.9820 h1         1 GNQ       0.082700
     61 H101        -1.6270     3.1430    -3.9280 hc         1 GNQ       0.047033
     62 H102        -2.3450     4.5810    -3.1700 hc         1 GNQ       0.047033
     63 H103        -0.5820     4.4380    -3.3030 hc         1 GNQ       0.047033
     64 H81         -3.6130     3.1700    -1.4140 h1         1 GNQ       0.044700
     65 H82         -2.9980     1.7180    -2.2290 h1         1 GNQ       0.044700
     66 HN1         -1.8510     1.8150     0.3930 hn         1 GNQ       0.494000
     67 H6          -2.4470     0.4130     2.1330 ha         1 GNQ       0.121000
     68 H5          -4.1490    -1.0400     3.2100 ha         1 GNQ       0.130500
     69 H4          -5.1960     1.2410    -1.0870 ha         1 GNQ       0.121000
     70 H3          -6.8880    -0.1890    -0.0400 ha         1 GNQ       0.130500
@<TRIPOS>BOND
     1     1     2 2   
     2     2     3 2   
     3     2     4 1   
     4     2    11 1   
     5     4     5 1   
     6     4    40 1   
     7     4    41 1   
     8     5     6 ar  
     9     5    10 ar  
    10     6     7 ar  
    11     6    42 1   
    12     7     8 ar  
    13     7    43 1   
    14     8     9 ar  
    15     8    44 1   
    16     9    10 ar  
    17     9    45 1   
    18    10    46 1   
    19    11    12 1   
    20    11    47 1   
    21    11    48 1   
    22    12    13 1   
    23    12    22 1   
    24    12    49 1   
    25    13    14 1   
    26    13    50 1   
    27    14    15 2   
    28    14    16 1   
    29    16    17 1   
    30    16    21 1   
    31    17    18 1   
    32    17    51 1   
    33    17    52 1   
    34    18    19 1   
    35    18    53 1   
    36    18    54 1   
    37    19    20 1   
    38    20    21 1   
    39    20    55 1   
    40    20    56 1   
    41    21    57 1   
    42    21    58 1   
    43    22    23 2   
    44    22    24 1   
    45    24    25 1   
    46    24    59 1   
    47    25    26 1   
    48    25    27 1   
    49    25    60 1   
    50    26    61 1   
    51    26    62 1   
    52    26    63 1   
    53    27    28 1   
    54    27    64 1   
    55    27    65 1   
    56    28    29 1   
    57    28    66 1   
    58    29    30 ar  
    59    29    32 ar  
    60    30    31 ar  
    61    30    67 1   
    62    31    34 ar  
    63    31    68 1   
    64    32    33 ar  
    65    32    69 1   
    66    33    34 ar  
    67    33    70 1   
    68    34    35 1   
    69    35    36 1   
    70    36    37 1   
    71    36    38 1   
    72    36    39 1   
@<TRIPOS>SUBSTRUCTURE
     1 GNQ         1 TEMP              0 ****  ****    0 ROOT
