@<TRIPOS>MOLECULE
GNQ
   70    72     1     0     0
SMALL
abcg2


@<TRIPOS>ATOM
      1 O5           3.1960    -1.1090     0.3490 o          1 GNQ      -0.513500
      2 S            2.4630    -1.2410    -0.9070 s6         1 GNQ       1.067000
      3 O4           3.2270    -1.3140    -2.1530 o          1 GNQ      -0.513500
      4 C17          1.4210    -2.7110    -0.7910 c3         1 GNQ      -0.223100
      5 C18          2.2990    -3.9110    -0.6360 ca         1 GNQ      -0.093300
      6 C20          2.7450    -4.5990    -1.7610 ca         1 GNQ      -0.080500
      7 C21          3.5710    -5.7060    -1.6240 ca         1 GNQ      -0.109500
      8 C22          3.9650    -6.1270    -0.3600 ca         1 GNQ      -0.094000
      9 C23          3.5290    -5.4390     0.7650 ca         1 GNQ      -0.109500
     10 C19          2.7030    -4.3330     0.6270 ca         1 GNQ      -0.080500
     11 C16          1.2460     0.0780    -1.0640 c3         1 GNQ      -0.316400
     12 CA           1.9020     1.3560    -1.5970 c3         1 GNQ       0.089700
     13 N            3.1340     1.6530    -0.9320 ns         1 GNQ      -0.527900
     14 C11          3.1450     1.9570     0.3930 c          1 GNQ       0.667100
     15 O3           2.0950     2.0280     1.0220 o          1 GNQ      -0.645100
     16 N3           4.3620     2.1900     0.9730 n          1 GNQ      -0.387800
     17 C15          5.6130     1.7290     0.3900 c6         1 GNQ       0.056500
     18 C14          6.7740     2.5300     0.9530 c6         1 GNQ       0.143600
     19 O2           6.8070     2.4990     2.3590 os         1 GNQ      -0.443000
     20 C13          5.6120     3.0280     2.8880 c6         1 GNQ       0.143600
     21 C12          4.3990     2.2460     2.4270 c6         1 GNQ       0.056500
     22 C            0.9620     2.5760    -1.5970 c          1 GNQ       0.604100
     23 O            1.4110     3.7010    -1.4710 o          1 GNQ      -0.583100
     24 N2          -0.3360     2.3170    -1.7990 ns         1 GNQ      -0.502900
     25 C9          -1.3580     3.3470    -1.8710 c3         1 GNQ       0.102700
     26 C10         -1.5010     3.9120    -3.2770 c3         1 GNQ      -0.111100
     27 C8          -2.6800     2.7630    -1.3880 c3         1 GNQ       0.202800
     28 N1          -2.5530     2.2230    -0.0600 nu         1 GNQ      -0.964200
     29 C7          -3.5250     1.4760     0.5410 ca         1 GNQ       0.340000
     30 C6          -3.3970     1.1330     1.8990 ca         1 GNQ      -0.190500
     31 C5          -4.3360     0.3410     2.5290 ca         1 GNQ      -0.049000
     32 C4          -4.6530     1.0090    -0.1480 ca         1 GNQ      -0.190500
     33 C3          -5.5910     0.2080     0.4850 ca         1 GNQ      -0.049000
     34 C2          -5.4290    -0.1280     1.8160 ca         1 GNQ       0.024100
     35 O1          -6.4070    -0.8840     2.4650 os         1 GNQ      -0.392100
     36 C1          -6.2630    -2.2120     2.4510 c3         1 GNQ       0.509000
     37 F1          -5.1370    -2.6190     3.0440 f          1 GNQ      -0.112667
     38 F2          -7.2880    -2.7390     3.1050 f          1 GNQ      -0.112667
     39 F3          -6.2510    -2.7210     1.2160 f          1 GNQ      -0.112667
     40 H171         0.7570    -2.5610     0.0610 h1         1 GNQ       0.098200
     41 H172         0.8220    -2.7500    -1.7020 h1         1 GNQ       0.098200
     42 H20          2.4350    -4.2770    -2.7470 ha         1 GNQ       0.120500
     43 H21          3.9030    -6.2420    -2.5040 ha         1 GNQ       0.118000
     44 H22          4.6070    -6.9920    -0.2530 ha         1 GNQ       0.116000
     45 H23          3.8300    -5.7660     1.7510 ha         1 GNQ       0.118000
     46 H19          2.3610    -3.8040     1.5080 ha         1 GNQ       0.120500
     47 H161         0.7850     0.2090    -0.0860 h1         1 GNQ       0.108200
     48 H162         0.4970    -0.3060    -1.7600 h1         1 GNQ       0.108200
     49 HA           2.1560     1.1810    -2.6460 h1         1 GNQ       0.081700
     50 HN           3.9580     1.7090    -1.5020 hn         1 GNQ       0.336500
     51 H151         5.7540     0.6590     0.5800 h1         1 GNQ       0.059700
     52 H152         5.6330     1.8780    -0.6890 h1         1 GNQ       0.059700
     53 H141         7.7120     2.1100     0.5880 h1         1 GNQ       0.053450
     54 H142         6.7020     3.5660     0.5940 h1         1 GNQ       0.053450
     55 H131         5.6830     2.9810     3.9760 h1         1 GNQ       0.053450
     56 H132         5.5000     4.0830     2.6010 h1         1 GNQ       0.053450
     57 H121         3.5030     2.7340     2.8030 h1         1 GNQ       0.059700
     58 H122         4.4280     1.2320     2.8450 h1         1 GNQ       0.059700
     59 HN2         -0.6360     1.3730    -1.9770 hn         1 GNQ       0.314500
     60 H9          -1.0600     4.1520    -1.1940 h1         1 GNQ       0.082700
     61 H101        -1.8120     3.1360    -3.9780 hc         1 GNQ       0.047033
     62 H102        -2.2440     4.7100    -3.3010 hc         1 GNQ       0.047033
     63 H103        -0.5550     4.3270    -3.6240 hc         1 GNQ       0.047033
     64 H81         -3.4500     3.5420    -1.4560 h1         1 GNQ       0.044700
     65 H82         -2.9810     1.9660    -2.0760 h1         1 GNQ       0.044700
     66 HN1         -1.9310     2.7190     0.5580 hn         1 GNQ       0.494000
     67 H6          -2.5460     1.4930     2.4640 ha         1 GNQ       0.121000
     68 H5          -4.2180     0.1000     3.5780 ha         1 GNQ       0.130500
     69 H4          -4.8170     1.2680    -1.1850 ha         1 GNQ       0.121000
     70 H3          -6.4590    -0.1320    -0.0660 ha         1 GNQ       0.130500
@<TRIPOS>BOND
     1     1     2 2   
     2     2     3 2   
     3     2     4 1   
     4     2    11 1   
     5     4     5 1   
     6     4    40 1   
     7     4    41 1   
     8     5     6 ar  
     9     5    10 ar  
    10     6     7 ar  
    11     6    42 1   
    12     7     8 ar  
    13     7    43 1   
    14     8     9 ar  
    15     8    44 1   
    16     9    10 ar  
    17     9    45 1   
    18    10    46 1   
    19    11    12 1   
    20    11    47 1   
    21    11    48 1   
    22    12    13 1   
    23    12    22 1   
    24    12    49 1   
    25    13    14 1   
    26    13    50 1   
    27    14    15 2   
    28    14    16 1   
    29    16    17 1   
    30    16    21 1   
    31    17    18 1   
    32    17    51 1   
    33    17    52 1   
    34    18    19 1   
    35    18    53 1   
    36    18    54 1   
    37    19    20 1   
    38    20    21 1   
    39    20    55 1   
    40    20    56 1   
    41    21    57 1   
    42    21    58 1   
    43    22    23 2   
    44    22    24 1   
    45    24    25 1   
    46    24    59 1   
    47    25    26 1   
    48    25    27 1   
    49    25    60 1   
    50    26    61 1   
    51    26    62 1   
    52    26    63 1   
    53    27    28 1   
    54    27    64 1   
    55    27    65 1   
    56    28    29 1   
    57    28    66 1   
    58    29    30 ar  
    59    29    32 ar  
    60    30    31 ar  
    61    30    67 1   
    62    31    34 ar  
    63    31    68 1   
    64    32    33 ar  
    65    32    69 1   
    66    33    34 ar  
    67    33    70 1   
    68    34    35 1   
    69    35    36 1   
    70    36    37 1   
    71    36    38 1   
    72    36    39 1   
@<TRIPOS>SUBSTRUCTURE
     1 GNQ         1 TEMP              0 ****  ****    0 ROOT
