@<TRIPOS>MOLECULE
GNR
   26    27     1     0     0
SMALL
No Charge or Current Charge


@<TRIPOS>ATOM
      1 OAM         56.1870    52.3820    37.6400 o          1 GNR      -0.535000
      2 CAH         56.1750    51.3220    37.0250 c          1 GNR       0.574000
      3 NAG         57.1630    51.0200    36.1070 ns         1 GNR      -0.148000
      4 CAD         57.2130    49.9840    35.1450 ca         1 GNR      -0.016000
      5 CAC         58.4190    49.7450    34.4620 ca         1 GNR      -0.144000
      6 CAB         58.4930    48.7400    33.4820 ca         1 GNR      -0.073000
      7 CAA         57.3550    47.9750    33.1750 ca         1 GNR      -0.127000
      8 CAF         56.1440    48.2170    33.8460 ca         1 GNR      -0.051000
      9 CAE         56.0720    49.2160    34.8330 ca         1 GNR      -0.144000
     10 SAJ         54.5140    49.5230    35.6480 ss         1 GNR      -0.146000
     11 CAI         55.0900    50.2400    37.2510 c6         1 GNR      -0.012700
     12 CAK         53.8690    50.7650    38.0740 c3         1 GNR      -0.137400
     13 CAL         52.8960    49.6500    38.4630 c          1 GNR       0.600100
     14 OAN         53.1810    48.8030    39.3000 o          1 GNR      -0.569100
     15 NAO         51.6550    49.6940    37.8370 ns         1 GNR      -0.386400
     16 OAP         50.7330    48.5800    37.9310 oh         1 GNR      -0.424100
     17 HAG         57.9120    51.6970    36.0470 hn         1 GNR       0.167000
     18 HAC         59.3030    50.3380    34.6890 ha         1 GNR       0.119000
     19 HAB         59.4290    48.5560    32.9590 ha         1 GNR       0.120000
     20 HAA         57.4090    47.2000    32.4140 ha         1 GNR       0.122000
     21 HAF         55.2630    47.6280    33.6000 ha         1 GNR       0.130000
     22 HAI         55.5890    49.4340    37.8070 h1         1 GNR       0.119700
     23 HAK1        53.3440    51.5350    37.4960 hc         1 GNR       0.086200
     24 HAK2        54.2320    51.2110    39.0080 hc         1 GNR       0.086200
     25 HAO         51.5150    50.3270    37.0510 hn         1 GNR       0.340500
     26 HAP         49.8790    49.0030    38.1880 ho         1 GNR       0.448000
@<TRIPOS>BOND
     1     1     2 2   
     2     2     3 1   
     3     2    11 1   
     4     3     4 1   
     5     3    17 1   
     6     4     5 ar  
     7     4     9 ar  
     8     5     6 ar  
     9     5    18 1   
    10     6     7 ar  
    11     6    19 1   
    12     7     8 ar  
    13     7    20 1   
    14     8     9 ar  
    15     8    21 1   
    16     9    10 1   
    17    10    11 1   
    18    11    12 1   
    19    11    22 1   
    20    12    13 1   
    21    12    23 1   
    22    12    24 1   
    23    13    14 2   
    24    13    15 1   
    25    15    16 1   
    26    15    25 1   
    27    16    26 1   
@<TRIPOS>SUBSTRUCTURE
     1 GNR         1 TEMP              0 ****  ****    0 ROOT
