@<TRIPOS>MOLECULE
GNR
   26    27     1     0     0
SMALL
abcg2


@<TRIPOS>ATOM
      1 OAM         56.1050    52.3470    37.6410 o          1 GNR      -0.535000
      2 CAH         56.0970    51.3440    36.9390 c          1 GNR       0.574000
      3 NAG         57.0890    51.0950    36.0420 ns         1 GNR      -0.148000
      4 CAD         57.1880    50.0160    35.1530 ca         1 GNR      -0.016000
      5 CAC         58.4330    49.6700    34.6290 ca         1 GNR      -0.144000
      6 CAB         58.5410    48.6550    33.6890 ca         1 GNR      -0.073000
      7 CAA         57.4060    47.9620    33.2740 ca         1 GNR      -0.127000
      8 CAF         56.1660    48.2850    33.8090 ca         1 GNR      -0.051000
      9 CAE         56.0470    49.3130    34.7430 ca         1 GNR      -0.144000
     10 SAJ         54.4690    49.7840    35.3710 ss         1 GNR      -0.146000
     11 CAI         55.0230    50.2730    37.0460 c6         1 GNR      -0.012700
     12 CAK         53.8300    50.7260    37.8740 c3         1 GNR      -0.137400
     13 CAL         52.9250    49.5510    38.2050 c          1 GNR       0.600100
     14 OAN         53.3440    48.5180    38.7120 o          1 GNR      -0.569100
     15 NAO         51.6230    49.7800    37.9340 ns         1 GNR      -0.386400
     16 OAP         50.6950    48.7580    38.0520 oh         1 GNR      -0.424100
     17 HAG         57.8620    51.7480    36.0630 hn         1 GNR       0.167000
     18 HAC         59.3110    50.2130    34.9580 ha         1 GNR       0.119000
     19 HAB         59.5130    48.4030    33.2850 ha         1 GNR       0.120000
     20 HAA         57.4860    47.1670    32.5450 ha         1 GNR       0.122000
     21 HAF         55.2800    47.7430    33.5050 ha         1 GNR       0.130000
     22 HAI         55.4730    49.3910    37.5080 h1         1 GNR       0.119700
     23 HAK1        53.2880    51.5250    37.3670 hc         1 GNR       0.086200
     24 HAK2        54.1980    51.1280    38.8190 hc         1 GNR       0.086200
     25 HAO         51.3120    50.5570    37.3710 hn         1 GNR       0.340500
     26 HAP         50.3280    48.8330    38.9470 ho         1 GNR       0.448000
@<TRIPOS>BOND
     1     1     2 2   
     2     2     3 1   
     3     2    11 1   
     4     3     4 1   
     5     3    17 1   
     6     4     5 ar  
     7     4     9 ar  
     8     5     6 ar  
     9     5    18 1   
    10     6     7 ar  
    11     6    19 1   
    12     7     8 ar  
    13     7    20 1   
    14     8     9 ar  
    15     8    21 1   
    16     9    10 1   
    17    10    11 1   
    18    11    12 1   
    19    11    22 1   
    20    12    13 1   
    21    12    23 1   
    22    12    24 1   
    23    13    14 2   
    24    13    15 1   
    25    15    16 1   
    26    15    25 1   
    27    16    26 1   
@<TRIPOS>SUBSTRUCTURE
     1 GNR         1 TEMP              0 ****  ****    0 ROOT
