@<TRIPOS>MOLECULE
GNS
   28    28     1     0     0
SMALL
No Charge or Current Charge


@<TRIPOS>ATOM
      1 C1           0.2770     1.0970     0.0260 c6         1 GNS       0.338300
      2 C2          -0.3850    -0.3340    -0.0510 c6         1 GNS       0.212500
      3 N           -1.7190    -0.3870     0.6310 n7         1 GNS      -0.858300
      4 S1          -2.9900     0.4630     0.0320 s6         1 GNS       1.354700
      5 O1S         -2.5550     0.8410    -1.3150 o          1 GNS      -0.709200
      6 O2S         -4.0780    -0.5150     0.1020 o          1 GNS      -0.709200
      7 O3S         -3.0340     1.5500     1.0070 o          1 GNS      -0.709200
      8 C3           0.6110    -1.3930     0.5400 c6         1 GNS       0.178300
      9 O3           0.1320    -2.7440     0.3860 oh         1 GNS      -0.619000
     10 C4           2.0120    -1.2900    -0.1340 c6         1 GNS       0.088300
     11 C5           2.5490     0.1670     0.0200 c6         1 GNS       0.149300
     12 O5           1.5940     1.0980    -0.5600 os         1 GNS      -0.475000
     13 C6           3.9300     0.3850    -0.6880 c3         1 GNS       0.165600
     14 O6           4.4060     1.7420    -0.6090 oh         1 GNS      -0.704000
     15 O4           2.9070    -2.2690     0.4470 oh         1 GNS      -0.729000
     16 O1           0.4160     1.5540     1.3760 oh         1 GNS      -0.679000
     17 H1          -0.3530     1.8050    -0.5360 h2         1 GNS       0.108700
     18 H2          -0.5130    -0.5860    -1.1140 h1         1 GNS       0.094700
     19 HN          -1.6360     0.1710     1.4760 hn         1 GNS       0.445000
     20 H3           0.7380    -1.1760     1.6110 h1         1 GNS       0.048700
     21 HO3          0.9330    -3.2970     0.5200 ho         1 GNS       0.428000
     22 H4           1.8890    -1.4930    -1.2090 h1         1 GNS       0.048700
     23 H5           2.6810     0.3950     1.0880 h1         1 GNS       0.065700
     24 H61          4.6660    -0.2880    -0.2290 h1         1 GNS       0.016200
     25 H62          3.8270     0.0870    -1.7400 h1         1 GNS       0.016200
     26 H6O          5.2290     1.7890    -1.1470 ho         1 GNS       0.489000
     27 HO4          3.6470    -2.4140    -0.1890 ho         1 GNS       0.493000
     28 HO1          0.9350     2.3830     1.3110 ho         1 GNS       0.448000
@<TRIPOS>BOND
     1     1     2 1   
     2     1    12 1   
     3     1    16 1   
     4     1    17 1   
     5     2     3 1   
     6     2     8 1   
     7     2    18 1   
     8     3     4 1   
     9     3    19 1   
    10     4     5 1   
    11     4     6 1   
    12     4     7 1   
    13     8     9 1   
    14     8    10 1   
    15     8    20 1   
    16     9    21 1   
    17    10    11 1   
    18    10    15 1   
    19    10    22 1   
    20    11    12 1   
    21    11    13 1   
    22    11    23 1   
    23    13    14 1   
    24    13    24 1   
    25    13    25 1   
    26    14    26 1   
    27    15    27 1   
    28    16    28 1   
@<TRIPOS>SUBSTRUCTURE
     1 GNS         1 TEMP              0 ****  ****    0 ROOT
