@<TRIPOS>MOLECULE
GNS
   28    28     1     0     0
SMALL
bcc


@<TRIPOS>ATOM
      1 C1           0.4060     1.1430     0.2040 c6         1 GNS       0.291900
      2 C2          -0.2760    -0.2170    -0.0020 c6         1 GNS       0.212500
      3 N           -1.5610    -0.3220     0.6600 n7         1 GNS      -0.803100
      4 S1          -2.9180     0.3140    -0.1200 s6         1 GNS       1.354700
      5 O1S         -2.9730    -0.4150    -1.3950 o          1 GNS      -0.709200
      6 O2S         -4.0060    -0.0080     0.8140 o          1 GNS      -0.709200
      7 O3S         -2.7370     1.7660    -0.3080 o          1 GNS      -0.709200
      8 C3           0.6460    -1.3420     0.4620 c6         1 GNS       0.155100
      9 O3           0.0490    -2.5710     0.1380 oh         1 GNS      -0.556800
     10 C4           2.0100    -1.2030    -0.2080 c6         1 GNS       0.065100
     11 C5           2.5860     0.1920     0.0430 c6         1 GNS       0.126100
     12 O5           1.6670     1.1710    -0.4080 os         1 GNS      -0.428600
     13 C6           3.8830     0.4120    -0.7040 c3         1 GNS       0.142400
     14 O6           4.4140     1.6650    -0.3430 oh         1 GNS      -0.581800
     15 O4           2.8390    -2.2160     0.3210 oh         1 GNS      -0.606800
     16 O1           0.4760     1.3850     1.5750 oh         1 GNS      -0.616800
     17 H1          -0.1690     1.9210    -0.3040 h2         1 GNS       0.108700
     18 H2          -0.4360    -0.3440    -1.0770 h1         1 GNS       0.094700
     19 HN          -1.5180     0.0150     1.6170 hn         1 GNS       0.389800
     20 H3           0.7950    -1.2580     1.5500 h1         1 GNS       0.048700
     21 HO3          0.6770    -3.2650     0.3680 ho         1 GNS       0.389000
     22 H4           1.8720    -1.3350    -1.2920 h1         1 GNS       0.048700
     23 H5           2.7770     0.3060     1.1200 h1         1 GNS       0.065700
     24 H61          4.5730    -0.4010    -0.4500 h1         1 GNS       0.016200
     25 H62          3.6900     0.3450    -1.7840 h1         1 GNS       0.016200
     26 H6O          5.2550     1.7720    -0.7950 ho         1 GNS       0.390000
     27 HO4          3.4670    -2.4930    -0.3520 ho         1 GNS       0.394000
     28 HO1          0.6290     2.3240     1.7240 ho         1 GNS       0.409000
@<TRIPOS>BOND
     1     1     2 1   
     2     1    12 1   
     3     1    16 1   
     4     1    17 1   
     5     2     3 1   
     6     2     8 1   
     7     2    18 1   
     8     3     4 1   
     9     3    19 1   
    10     4     5 1   
    11     4     6 1   
    12     4     7 1   
    13     8     9 1   
    14     8    10 1   
    15     8    20 1   
    16     9    21 1   
    17    10    11 1   
    18    10    15 1   
    19    10    22 1   
    20    11    12 1   
    21    11    13 1   
    22    11    23 1   
    23    13    14 1   
    24    13    24 1   
    25    13    25 1   
    26    14    26 1   
    27    15    27 1   
    28    16    28 1   
@<TRIPOS>SUBSTRUCTURE
     1 GNS         1 TEMP              0 ****  ****    0 ROOT
