@<TRIPOS>MOLECULE
GNT
   42    45     1     0     0
SMALL
bcc


@<TRIPOS>ATOM
      1 C1           2.5310    67.5820    63.3190 c2         1 GNT      -0.138200
      2 C2           2.6240    68.0090    62.0650 c2         1 GNT      -0.156200
      3 C3           3.9170    68.2060    61.3340 c6         1 GNT       0.190300
      4 C4           5.0960    68.2090    62.3000 c6         1 GNT      -0.106400
      5 C41          5.0160    67.1610    63.3810 c5         1 GNT       0.146100
      6 C42          3.6970    67.1790    64.1850 c5         1 GNT       0.010500
      7 O5           5.1280    65.8340    62.8340 os         1 GNT      -0.277900
      8 C6           4.4520    63.6350    63.6040 ca         1 GNT       0.117100
      9 C7           3.6280    62.9600    64.5010 ca         1 GNT      -0.182000
     10 C8           2.7930    63.6580    65.3740 ca         1 GNT      -0.124000
     11 C9           1.7890    65.7820    66.2970 c3         1 GNT       0.219100
     12 N10          2.4140    66.8190    67.1090 n3         1 GNT      -0.709600
     13 C11          2.6380    68.0640    66.3900 c3         1 GNT       0.171800
     14 C12          3.8240    68.0530    65.4340 c3         1 GNT      -0.051400
     15 C13          4.3940    65.0280    63.6280 ca         1 GNT       0.104100
     16 C14          3.5580    65.7090    64.4860 ca         1 GNT      -0.120300
     17 C15          2.7310    65.0480    65.3830 ca         1 GNT      -0.049300
     18 C16          5.3490    61.6610    62.6640 c3         1 GNT       0.123700
     19 O17          5.2980    63.0710    62.7210 os         1 GNT      -0.297900
     20 O18          3.9960    67.2010    60.3410 oh         1 GNT      -0.574800
     21 C19          1.6160    67.0660    68.2960 c3         1 GNT       0.151100
     22 H1           1.5460    67.4740    63.7600 ha         1 GNT       0.127000
     23 H2           1.7150    68.2280    61.5140 ha         1 GNT       0.131000
     24 H3           3.8850    69.1960    60.8570 h1         1 GNT       0.027700
     25 H41A         6.0400    68.1250    61.7530 hc         1 GNT       0.055200
     26 H42          5.1270    69.1800    62.8030 hc         1 GNT       0.055200
     27 H41          5.8520    67.2940    64.0810 h1         1 GNT       0.054700
     28 H7           3.6330    61.8790    64.5440 ha         1 GNT       0.135000
     29 H8           2.1780    63.0910    66.0620 ha         1 GNT       0.128000
     30 H91          1.3440    65.0480    66.9710 h1         1 GNT       0.036200
     31 H92          0.9480    66.1940    65.7120 h1         1 GNT       0.036200
     32 H111         1.7240    68.3970    65.8690 h1         1 GNT       0.029700
     33 H112         2.8510    68.8350    67.1340 h1         1 GNT       0.029700
     34 H121         4.7110    67.7340    65.9890 hc         1 GNT       0.050700
     35 H122         4.0050    69.0840    65.1150 hc         1 GNT       0.050700
     36 H161         6.0670    61.4070    61.8880 h1         1 GNT       0.038700
     37 H162         5.6840    61.2250    63.6090 h1         1 GNT       0.038700
     38 H163         4.3800    61.2270    62.4020 h1         1 GNT       0.038700
     39 H18          4.7470    67.4030    59.7740 ho         1 GNT       0.399000
     40 H191         2.1160    67.7930    68.9370 h1         1 GNT       0.030367
     41 H192         0.6080    67.4530    68.0780 h1         1 GNT       0.030367
     42 H193         1.5000    66.1450    68.8680 h1         1 GNT       0.030367
@<TRIPOS>BOND
     1     1     2 2   
     2     1     6 1   
     3     1    22 1   
     4     2     3 1   
     5     2    23 1   
     6     3     4 1   
     7     3    20 1   
     8     3    24 1   
     9     4     5 1   
    10     4    25 1   
    11     4    26 1   
    12     5     6 1   
    13     5     7 1   
    14     5    27 1   
    15     6    14 1   
    16     6    16 1   
    17     7    15 1   
    18     8     9 ar  
    19     8    15 ar  
    20     8    19 1   
    21     9    10 ar  
    22     9    28 1   
    23    10    17 ar  
    24    10    29 1   
    25    11    12 1   
    26    11    17 1   
    27    11    30 1   
    28    11    31 1   
    29    12    13 1   
    30    12    21 1   
    31    13    14 1   
    32    13    32 1   
    33    13    33 1   
    34    14    34 1   
    35    14    35 1   
    36    15    16 ar  
    37    16    17 ar  
    38    18    19 1   
    39    18    36 1   
    40    18    37 1   
    41    18    38 1   
    42    20    39 1   
    43    21    40 1   
    44    21    41 1   
    45    21    42 1   
@<TRIPOS>SUBSTRUCTURE
     1 GNT         1 TEMP              0 ****  ****    0 ROOT
