@<TRIPOS>MOLECULE
GNT
   42    45     1     0     0
SMALL
No Charge or Current Charge


@<TRIPOS>ATOM
      1 C1           2.4600    67.6100    63.3420 c2         1 GNT      -0.188200
      2 C2           2.5700    68.1090    62.0930 c2         1 GNT      -0.206200
      3 C3           3.8600    68.3070    61.3180 c6         1 GNT       0.213500
      4 C4           5.1040    68.2520    62.2300 c6         1 GNT      -0.106400
      5 C41          4.9980    67.1440    63.3000 c5         1 GNT       0.169300
      6 C42          3.6810    67.1910    64.1820 c5         1 GNT       0.010500
      7 O5           5.1060    65.8100    62.7130 os         1 GNT      -0.301100
      8 C6           4.4640    63.6080    63.5910 ca         1 GNT       0.117100
      9 C7           3.6680    62.9180    64.5340 ca         1 GNT      -0.164000
     10 C8           2.8250    63.6350    65.4100 ca         1 GNT      -0.106000
     11 C9           1.7780    65.7860    66.2800 c3         1 GNT       0.219100
     12 N10          2.3640    66.8330    67.1590 n3         1 GNT      -0.709600
     13 C11          2.6820    68.1010    66.4530 c3         1 GNT       0.171800
     14 C12          3.8640    68.0460    65.4610 c3         1 GNT      -0.051400
     15 C13          4.3970    65.0140    63.5740 ca         1 GNT       0.104100
     16 C14          3.5730    65.7160    64.4340 ca         1 GNT      -0.120300
     17 C15          2.7610    65.0470    65.3700 ca         1 GNT      -0.049300
     18 C16          5.4190    61.5250    62.6690 c3         1 GNT       0.146900
     19 O17          5.3030    62.9580    62.7020 os         1 GNT      -0.321100
     20 O18          3.9320    67.3170    60.2920 oh         1 GNT      -0.637000
     21 C19          1.5130    67.0780    68.3450 c3         1 GNT       0.151100
     22 H1           1.4620    67.5070    63.7670 ha         1 GNT       0.177000
     23 H2           1.6700    68.3920    61.5470 ha         1 GNT       0.181000
     24 H3           3.8340    69.3020    60.8490 h1         1 GNT       0.027700
     25 H41A         6.0220    68.1300    61.6400 hc         1 GNT       0.055200
     26 H42          5.2000    69.2170    62.7450 hc         1 GNT       0.055200
     27 H41          5.8690    67.2520    63.9610 h1         1 GNT       0.054700
     28 H7           3.6810    61.8330    64.5970 ha         1 GNT       0.117000
     29 H8           2.2080    63.0860    66.1170 ha         1 GNT       0.110000
     30 H91          1.2920    65.0260    66.9080 h1         1 GNT       0.036200
     31 H92          0.9790    66.2170    65.6630 h1         1 GNT       0.036200
     32 H111         1.7910    68.4770    65.9320 h1         1 GNT       0.029700
     33 H112         2.9440    68.8630    67.1990 h1         1 GNT       0.029700
     34 H121         4.7470    67.6990    66.0120 hc         1 GNT       0.050700
     35 H122         4.0860    69.0770    65.1620 hc         1 GNT       0.050700
     36 H161         6.1330    61.2200    61.8930 h1         1 GNT       0.038700
     37 H162         5.7780    61.1400    63.6320 h1         1 GNT       0.038700
     38 H163         4.4510    61.0610    62.4410 h1         1 GNT       0.038700
     39 H18          4.8090    67.4200    59.8670 ho         1 GNT       0.438000
     40 H191         1.9880    67.7990    69.0230 h1         1 GNT       0.030367
     41 H192         0.5330    67.4760    68.0500 h1         1 GNT       0.030367
     42 H193         1.3520    66.1480    68.9080 h1         1 GNT       0.030367
@<TRIPOS>BOND
     1     1     2 2   
     2     1     6 1   
     3     1    22 1   
     4     2     3 1   
     5     2    23 1   
     6     3     4 1   
     7     3    20 1   
     8     3    24 1   
     9     4     5 1   
    10     4    25 1   
    11     4    26 1   
    12     5     6 1   
    13     5     7 1   
    14     5    27 1   
    15     6    14 1   
    16     6    16 1   
    17     7    15 1   
    18     8     9 ar  
    19     8    15 ar  
    20     8    19 1   
    21     9    10 ar  
    22     9    28 1   
    23    10    17 ar  
    24    10    29 1   
    25    11    12 1   
    26    11    17 1   
    27    11    30 1   
    28    11    31 1   
    29    12    13 1   
    30    12    21 1   
    31    13    14 1   
    32    13    32 1   
    33    13    33 1   
    34    14    34 1   
    35    14    35 1   
    36    15    16 ar  
    37    16    17 ar  
    38    18    19 1   
    39    18    36 1   
    40    18    37 1   
    41    18    38 1   
    42    20    39 1   
    43    21    40 1   
    44    21    41 1   
    45    21    42 1   
@<TRIPOS>SUBSTRUCTURE
     1 GNT         1 TEMP              0 ****  ****    0 ROOT
