@<TRIPOS>MOLECULE
GNV
   22    23     1     0     0
SMALL
No Charge or Current Charge


@<TRIPOS>ATOM
      1 C13         -8.4400   -14.6080    29.4330 ca         1 GNV      -0.157000
      2 C15         -7.7060   -13.7810    31.6110 ca         1 GNV      -0.143000
      3 C02         -6.9090   -11.9920    34.9020 c          1 GNV       0.729600
      4 C04         -6.9560   -12.9860    33.7840 ca         1 GNV      -0.360600
      5 C05         -6.2130   -14.1660    33.8900 ca         1 GNV       0.394900
      6 C07         -6.9210   -14.9480    31.8050 ca         1 GNV       0.312000
      7 C08         -6.9130   -15.9350    30.7930 ca         1 GNV      -0.082600
      8 C09         -6.0960   -17.1810    30.9650 c          1 GNV       0.731600
      9 C12         -7.6690   -15.7630    29.6150 ca         1 GNV      -0.132000
     10 C14         -8.4600   -13.6190    30.4250 ca         1 GNV      -0.101000
     11 C16         -7.7140   -12.7960    32.6200 ca         1 GNV       0.230100
     12 N06         -6.1940   -15.1180    32.9350 nb         1 GNV      -0.688000
     13 O01         -7.5680   -10.9690    34.7830 o          1 GNV      -0.719500
     14 O03         -6.2220   -12.2400    35.8780 o          1 GNV      -0.719500
     15 O10         -6.6450   -18.1710    31.4320 o          1 GNV      -0.733500
     16 O11         -4.9640   -17.1970    30.4970 o          1 GNV      -0.733500
     17 O17         -8.4470   -11.6590    32.4880 oh         1 GNV      -0.646100
     18 H1          -9.0210   -14.4790    28.5240 ha         1 GNV       0.068000
     19 H4          -7.6540   -16.5300    28.8440 ha         1 GNV       0.092000
     20 H5          -9.0640   -12.7300    30.2660 ha         1 GNV       0.097000
     21 H2          -8.2610   -11.1620    33.3380 ho         1 GNV       0.548000
     22 H3          -5.6010   -14.3790    34.7660 h4         1 GNV       0.012100
@<TRIPOS>BOND
     1     1     9 ar  
     2     1    10 ar  
     3     1    18 1   
     4     2     6 ar  
     5     2    10 ar  
     6     2    11 ar  
     7     3     4 1   
     8     3    13 1   
     9     3    14 1   
    10     4     5 ar  
    11     4    11 ar  
    12     5    12 ar  
    13     5    22 1   
    14     6     7 ar  
    15     6    12 ar  
    16     7     8 1   
    17     7     9 ar  
    18     8    15 1   
    19     8    16 1   
    20     9    19 1   
    21    10    20 1   
    22    11    17 1   
    23    17    21 1   
@<TRIPOS>SUBSTRUCTURE
     1 GNV         1 TEMP              0 ****  ****    0 ROOT
