@<TRIPOS>MOLECULE
GNV
   22    23     1     0     0
SMALL
abcg2


@<TRIPOS>ATOM
      1 C13         -8.4420   -14.5870    29.4500 ca         1 GNV      -0.157000
      2 C15         -7.7150   -13.7720    31.5980 ca         1 GNV      -0.143000
      3 C02         -6.9150   -12.0070    34.8890 c          1 GNV       0.729600
      4 C04         -6.9440   -13.0150    33.7760 ca         1 GNV      -0.360600
      5 C05         -6.2060   -14.2120    33.8440 ca         1 GNV       0.394900
      6 C07         -6.9280   -14.9420    31.7910 ca         1 GNV       0.312000
      7 C08         -6.9190   -15.9370    30.7780 ca         1 GNV      -0.082600
      8 C09         -6.0930   -17.2030    30.9520 c          1 GNV       0.731600
      9 C12         -7.6660   -15.7460    29.6350 ca         1 GNV      -0.132000
     10 C14         -8.4690   -13.6110    30.4160 ca         1 GNV      -0.101000
     11 C16         -7.7090   -12.7890    32.6330 ca         1 GNV       0.230100
     12 N06         -6.1780   -15.1440    32.9190 nb         1 GNV      -0.688000
     13 O01         -7.6230   -10.9500    34.6970 o          1 GNV      -0.719500
     14 O03         -6.2380   -12.2270    35.9080 o          1 GNV      -0.719500
     15 O10         -6.6620   -18.1680    31.5180 o          1 GNV      -0.733500
     16 O11         -4.9260   -17.1740    30.4930 o          1 GNV      -0.733500
     17 O17         -8.4300   -11.6820    32.4930 oh         1 GNV      -0.646100
     18 H1          -9.0180   -14.4690    28.5400 ha         1 GNV       0.068000
     19 H4          -7.6570   -16.5060    28.8610 ha         1 GNV       0.092000
     20 H5          -9.0620   -12.7160    30.2870 ha         1 GNV       0.097000
     21 H2          -8.2290   -11.1690    33.3830 ho         1 GNV       0.548000
     22 H3          -5.6080   -14.3840    34.7330 h4         1 GNV       0.012100
@<TRIPOS>BOND
     1     1     9 ar  
     2     1    10 ar  
     3     1    18 1   
     4     2     6 ar  
     5     2    10 ar  
     6     2    11 ar  
     7     3     4 1   
     8     3    13 1   
     9     3    14 1   
    10     4     5 ar  
    11     4    11 ar  
    12     5    12 ar  
    13     5    22 1   
    14     6     7 ar  
    15     6    12 ar  
    16     7     8 1   
    17     7     9 ar  
    18     8    15 1   
    19     8    16 1   
    20     9    19 1   
    21    10    20 1   
    22    11    17 1   
    23    17    21 1   
@<TRIPOS>SUBSTRUCTURE
     1 GNV         1 TEMP              0 ****  ****    0 ROOT
