@<TRIPOS>MOLECULE
GNW
   29    30     1     0     0
SMALL
No Charge or Current Charge


@<TRIPOS>ATOM
      1 C4           4.3520     0.2280     0.1070 c6         1 GNW       0.156300
      2 C5           0.7610     0.9920    -1.1290 c3         1 GNW       0.216100
      3 C6          -0.6180     0.9440    -0.4750 ca         1 GNW      -0.076300
      4 C11         -1.5950     0.0340    -0.9290 ca         1 GNW      -0.105000
      5 C7          -0.9240     1.8100     0.5940 ca         1 GNW      -0.089000
      6 C8          -2.1920     1.7680     1.2030 ca         1 GNW      -0.108000
      7 C9          -3.1610     0.8580     0.7450 ca         1 GNW      -0.104000
      8 C10         -2.8600    -0.0070    -0.3200 ca         1 GNW       0.119000
      9 N1           1.8460     0.5030    -0.2470 n3         1 GNW      -0.730600
     10 N2           4.1800    -1.1900     0.5380 n7         1 GNW      -0.863400
     11 C3           3.2040     0.7110    -0.8420 c6         1 GNW       0.166800
     12 C1           1.6770    -0.9280     0.1640 c6         1 GNW       0.166800
     13 C2           2.8220    -1.4160     1.1130 c6         1 GNW       0.156300
     14 Cl1         -4.0710    -1.1470    -0.8920 cl         1 GNW      -0.210000
     15 H1           4.3690     0.8750     0.9960 h1         1 GNW       0.036450
     16 H2           5.3210     0.3430    -0.4020 h1         1 GNW       0.036450
     17 H3           0.7400     0.4070    -2.0590 h1         1 GNW       0.040700
     18 H4           0.9590     2.0340    -1.4160 h1         1 GNW       0.040700
     19 H5          -1.3730    -0.6420    -1.7500 ha         1 GNW       0.126000
     20 H6          -0.1750     2.5110     0.9550 ha         1 GNW       0.133000
     21 H7          -2.4210     2.4380     2.0280 ha         1 GNW       0.117000
     22 H8          -4.1410     0.8230     1.2130 ha         1 GNW       0.128000
     23 H10          4.8890    -1.4150     1.2470 hn         1 GNW       0.412000
     24 H12          3.3620     1.7750    -1.0680 h1         1 GNW       0.039950
     25 H13          3.2850     0.1650    -1.7940 h1         1 GNW       0.039950
     26 H14          0.7180    -1.0710     0.6830 h1         1 GNW       0.039950
     27 H15          1.6590    -1.5760    -0.7250 h1         1 GNW       0.039950
     28 H16          2.6880    -2.4860     1.3300 h1         1 GNW       0.036450
     29 H17          2.7420    -0.8750     2.0680 h1         1 GNW       0.036450
@<TRIPOS>BOND
     1     1    10 1   
     2     1    11 1   
     3     1    15 1   
     4     1    16 1   
     5     2     3 1   
     6     2     9 1   
     7     2    17 1   
     8     2    18 1   
     9     3     4 ar  
    10     3     5 ar  
    11     4     8 ar  
    12     4    19 1   
    13     5     6 ar  
    14     5    20 1   
    15     6     7 ar  
    16     6    21 1   
    17     7     8 ar  
    18     7    22 1   
    19     8    14 1   
    20     9    11 1   
    21     9    12 1   
    22    10    13 1   
    23    10    23 1   
    24    11    24 1   
    25    11    25 1   
    26    12    13 1   
    27    12    26 1   
    28    12    27 1   
    29    13    28 1   
    30    13    29 1   
@<TRIPOS>SUBSTRUCTURE
     1 GNW         1 TEMP              0 ****  ****    0 ROOT
