@<TRIPOS>MOLECULE
GNW
   29    30     1     0     0
SMALL
bcc


@<TRIPOS>ATOM
      1 C4           4.2110     0.4320     0.1420 c6         1 GNW       0.156300
      2 C5           0.7340     0.6510    -1.2140 c3         1 GNW       0.216100
      3 C6          -0.5990     0.7350    -0.5130 ca         1 GNW      -0.076300
      4 C11         -1.7400     0.2190    -1.1150 ca         1 GNW      -0.123000
      5 C7          -0.7120     1.3590     0.7270 ca         1 GNW      -0.107000
      6 C8          -1.9460     1.4700     1.3490 ca         1 GNW      -0.126000
      7 C9          -3.0910     0.9620     0.7490 ca         1 GNW      -0.122000
      8 C10         -2.9680     0.3410    -0.4830 ca         1 GNW       0.027400
      9 N1           1.8190     0.3690    -0.3040 n3         1 GNW      -0.730600
     10 N2           4.1540    -0.9330     0.6290 n7         1 GNW      -0.808200
     11 C3           3.1180     0.6460    -0.8900 c6         1 GNW       0.166800
     12 C1           1.7670    -0.9870     0.2130 c6         1 GNW       0.166800
     13 C2           2.8650    -1.2020     1.2380 c6         1 GNW       0.156300
     14 CL1         -4.3820    -0.3120    -1.2510 cl         1 GNW      -0.118400
     15 H1           4.0820     1.1750     0.9440 h1         1 GNW       0.036450
     16 H2           5.1840     0.6130    -0.3190 h1         1 GNW       0.036450
     17 H3           0.6720    -0.0820    -2.0360 h1         1 GNW       0.040700
     18 H4           0.9340     1.6190    -1.6880 h1         1 GNW       0.040700
     19 H5          -1.6710    -0.2820    -2.0740 ha         1 GNW       0.144000
     20 H6           0.1770     1.7480     1.2060 ha         1 GNW       0.151000
     21 H7          -2.0250     1.9570     2.3120 ha         1 GNW       0.135000
     22 H8          -4.0540     1.0480     1.2330 ha         1 GNW       0.146000
     23 H10          4.8910    -1.0860     1.3050 hn         1 GNW       0.356800
     24 H12          3.1400     1.6830    -1.2320 h1         1 GNW       0.039950
     25 H13          3.3190     0.0080    -1.7680 h1         1 GNW       0.039950
     26 H14          0.7970    -1.1590     0.6820 h1         1 GNW       0.039950
     27 H15          1.8740    -1.7290    -0.5980 h1         1 GNW       0.039950
     28 H16          2.8360    -2.2370     1.5850 h1         1 GNW       0.036450
     29 H17          2.6600    -0.5580     2.1080 h1         1 GNW       0.036450
@<TRIPOS>BOND
     1     1    10 1   
     2     1    11 1   
     3     1    15 1   
     4     1    16 1   
     5     2     3 1   
     6     2     9 1   
     7     2    17 1   
     8     2    18 1   
     9     3     4 ar  
    10     3     5 ar  
    11     4     8 ar  
    12     4    19 1   
    13     5     6 ar  
    14     5    20 1   
    15     6     7 ar  
    16     6    21 1   
    17     7     8 ar  
    18     7    22 1   
    19     8    14 1   
    20     9    11 1   
    21     9    12 1   
    22    10    13 1   
    23    10    23 1   
    24    11    24 1   
    25    11    25 1   
    26    12    13 1   
    27    12    26 1   
    28    12    27 1   
    29    13    28 1   
    30    13    29 1   
@<TRIPOS>SUBSTRUCTURE
     1 GNW         1 TEMP              0 ****  ****    0 ROOT
