@<TRIPOS>MOLECULE
GNX
   31    31     1     0     0
SMALL
abcg2


@<TRIPOS>ATOM
      1 N2          26.3580    -8.6220   -22.5230 n7         1 GNX      -0.850300
      2 C1          26.5980    -6.2770   -21.6910 c6         1 GNX       0.331300
      3 O1          27.4950    -6.7210   -20.7210 oh         1 GNX      -0.664000
      4 S1          24.7410    -9.1000   -22.3990 s6         1 GNX       1.366700
      5 C2          26.6600    -7.2540   -22.8680 c6         1 GNX       0.201500
      6 C3          28.0340    -7.1560   -23.5410 c6         1 GNX       0.241300
      7 O3          28.0470    -7.9820   -24.6890 os         1 GNX      -0.580700
      8 C4          28.2920    -5.7120   -23.9620 c6         1 GNX       0.123300
      9 O4          29.6000    -5.6090   -24.4710 oh         1 GNX      -0.699000
     10 C5          28.1240    -4.7800   -22.7520 c6         1 GNX       0.146300
     11 O5          26.8700    -4.9730   -22.1250 os         1 GNX      -0.491000
     12 C6          28.1960    -3.3240   -23.1650 c3         1 GNX       0.159600
     13 O6          28.1870    -2.5170   -22.0120 oh         1 GNX      -0.710000
     14 O12         28.1680   -10.1980   -25.6070 o          1 GNX      -0.714533
     15 S12         28.9810    -9.3440   -24.7420 s6         1 GNX       1.511300
     16 O1S         24.1740    -8.7450   -23.7090 o          1 GNX      -0.722200
     17 O22         30.2480    -8.9160   -25.3390 o          1 GNX      -0.714533
     18 O2S         24.8520   -10.5430   -22.1500 o          1 GNX      -0.722200
     19 O32         29.1220    -9.8190   -23.3630 o          1 GNX      -0.714533
     20 O3S         24.0980    -8.3780   -21.2850 o          1 GNX      -0.722200
     21 HN21        26.9050    -8.9630   -21.7400 hn         1 GNX       0.463000
     22 H1          25.5780    -6.2350   -21.2990 h2         1 GNX       0.089700
     23 HO1         27.3060    -6.2800   -19.8860 ho         1 GNX       0.426000
     24 H2          25.9150    -6.9250   -23.5990 h1         1 GNX       0.086700
     25 H3          28.8150    -7.4550   -22.8330 h1         1 GNX       0.067700
     26 H4          27.5450    -5.4400   -24.7210 h1         1 GNX       0.041700
     27 HO4         29.5910    -5.0580   -25.2570 ho         1 GNX       0.481000
     28 H5          28.9440    -4.9870   -22.0500 h1         1 GNX       0.059700
     29 H61         29.1090    -3.1750   -23.7520 h1         1 GNX       0.015200
     30 H62         27.3470    -3.1020   -23.8280 h1         1 GNX       0.015200
     31 HO6         28.2390    -1.5990   -22.2910 ho         1 GNX       0.475000
@<TRIPOS>BOND
     1     1     4 1   
     2     1     5 1   
     3     1    21 1   
     4     2     3 1   
     5     2     5 1   
     6     2    11 1   
     7     2    22 1   
     8     3    23 1   
     9     4    16 1   
    10     4    18 1   
    11     4    20 1   
    12     5     6 1   
    13     5    24 1   
    14     6     7 1   
    15     6     8 1   
    16     6    25 1   
    17     7    15 1   
    18     8     9 1   
    19     8    10 1   
    20     8    26 1   
    21     9    27 1   
    22    10    11 1   
    23    10    12 1   
    24    10    28 1   
    25    12    13 1   
    26    12    29 1   
    27    12    30 1   
    28    13    31 1   
    29    14    15 1   
    30    15    17 1   
    31    15    19 1   
@<TRIPOS>SUBSTRUCTURE
     1 GNX         1 TEMP              0 ****  ****    0 ROOT
