@<TRIPOS>MOLECULE
GNX
   31    31     1     0     0
SMALL
No Charge or Current Charge


@<TRIPOS>ATOM
      1 N2          26.1330    -8.7240   -22.5720 n7         1 GNX      -0.850300
      2 C1          26.4090    -6.3090   -21.7820 c6         1 GNX       0.331300
      3 O1          27.2840    -6.6660   -20.7090 oh         1 GNX      -0.664000
      4 S1          24.6110    -9.0710   -22.0710 s6         1 GNX       1.366700
      5 C2          26.4990    -7.3280   -22.9800 c6         1 GNX       0.201500
      6 C3          27.9330    -7.2520   -23.6190 c6         1 GNX       0.241300
      7 O3          28.0100    -8.1060   -24.7900 os         1 GNX      -0.580700
      8 C4          28.2390    -5.7630   -24.0220 c6         1 GNX       0.123300
      9 O4          29.5460    -5.6170   -24.6270 oh         1 GNX      -0.699000
     10 C5          28.0970    -4.8380   -22.7740 c6         1 GNX       0.146300
     11 O5          26.7680    -4.9820   -22.2030 os         1 GNX      -0.491000
     12 C6          28.3170    -3.3250   -23.1210 c3         1 GNX       0.159600
     13 O6          28.1280    -2.4440   -21.9960 oh         1 GNX      -0.710000
     14 O12         29.0620    -9.8060   -26.2100 o          1 GNX      -0.714533
     15 S12         29.3320    -9.0540   -24.9770 s6         1 GNX       1.511300
     16 O1S         23.8170    -7.9340   -22.5430 o          1 GNX      -0.722200
     17 O22         30.4190    -8.0730   -25.0870 o          1 GNX      -0.714533
     18 O2S         24.3490   -10.3510   -22.7300 o          1 GNX      -0.722200
     19 O32         29.3810    -9.8710   -23.7580 o          1 GNX      -0.714533
     20 O3S         24.8420    -9.1220   -20.6300 o          1 GNX      -0.722200
     21 HN21        26.5450    -8.8840   -21.6580 hn         1 GNX       0.463000
     22 H1          25.3720    -6.2840   -21.4120 h2         1 GNX       0.089700
     23 HO1         27.2210    -5.9240   -20.0720 ho         1 GNX       0.426000
     24 H2          25.7970    -6.9920   -23.7580 h1         1 GNX       0.086700
     25 H3          28.6630    -7.5760   -22.8620 h1         1 GNX       0.067700
     26 H4          27.4750    -5.4550   -24.7510 h1         1 GNX       0.041700
     27 HO4         29.8690    -6.5360   -24.8540 ho         1 GNX       0.481000
     28 H5          28.8490    -5.1220   -22.0240 h1         1 GNX       0.059700
     29 H61         29.3350    -3.2020   -23.5140 h1         1 GNX       0.015200
     30 H62         27.6220    -3.0530   -23.9270 h1         1 GNX       0.015200
     31 HO6         28.2170    -1.5240   -22.3370 ho         1 GNX       0.475000
@<TRIPOS>BOND
     1     1     4 1   
     2     1     5 1   
     3     1    21 1   
     4     2     3 1   
     5     2     5 1   
     6     2    11 1   
     7     2    22 1   
     8     3    23 1   
     9     4    16 1   
    10     4    18 1   
    11     4    20 1   
    12     5     6 1   
    13     5    24 1   
    14     6     7 1   
    15     6     8 1   
    16     6    25 1   
    17     7    15 1   
    18     8     9 1   
    19     8    10 1   
    20     8    26 1   
    21     9    27 1   
    22    10    11 1   
    23    10    12 1   
    24    10    28 1   
    25    12    13 1   
    26    12    29 1   
    27    12    30 1   
    28    13    31 1   
    29    14    15 1   
    30    15    17 1   
    31    15    19 1   
@<TRIPOS>SUBSTRUCTURE
     1 GNX         1 TEMP              0 ****  ****    0 ROOT
