@<TRIPOS>MOLECULE
GNY
   29    30     1     0     0
SMALL
No Charge or Current Charge


@<TRIPOS>ATOM
      1 C15         -1.1660     1.5400    -0.0220 ca         1 GNY       0.406900
      2 C17          0.7270     0.1600     0.0330 ca         1 GNY       0.292000
      3 C01          3.9910     1.2910     1.2300 c3         1 GNY      -0.080600
      4 C02          3.1140     1.1960    -0.0400 c3         1 GNY      -0.010400
      5 C03          3.9770     1.1520    -1.3230 c3         1 GNY      -0.080600
      6 C04          2.1450    -0.0040     0.0310 ca         1 GNY      -0.049300
      7 C05          2.6950    -1.3020     0.0970 ca         1 GNY      -0.122000
      8 C06          1.8710    -2.4290     0.1640 ca         1 GNY      -0.141000
      9 C07          0.4810    -2.2830     0.1670 ca         1 GNY      -0.094000
     10 C08         -0.1030    -0.9960     0.1000 ca         1 GNY      -0.163000
     11 C09         -1.5090    -0.8330     0.1010 ca         1 GNY       0.178100
     12 C11         -2.0390     0.4600     0.0320 ca         1 GNY      -0.220600
     13 C12         -3.4960     0.7400     0.0240 c          1 GNY       0.726600
     14 N16          0.1780     1.4000    -0.0250 nb         1 GNY      -0.743000
     15 O10         -2.3480    -1.9080     0.1920 oh         1 GNY      -0.480100
     16 O13         -3.9380     1.4600     0.9060 o          1 GNY      -0.709500
     17 O14         -4.1600     0.3330    -0.9180 o          1 GNY      -0.709500
     18 H2           3.3620     1.3410     2.1260 hc         1 GNY       0.027367
     19 H3           4.6560     0.4240     1.3230 hc         1 GNY       0.027367
     20 H4           4.6130     2.1940     1.2020 hc         1 GNY       0.027367
     21 H5           2.5570     2.1380    -0.0890 hc         1 GNY       0.077700
     22 H6           4.6410     0.2800    -1.3290 hc         1 GNY       0.027367
     23 H7           3.3370     1.1030    -2.2120 hc         1 GNY       0.027367
     24 H8           4.5970     2.0530    -1.4010 hc         1 GNY       0.027367
     25 H9           3.7740    -1.4410     0.0970 ha         1 GNY       0.097000
     26 H10          2.3130    -3.4210     0.2150 ha         1 GNY       0.094000
     27 H11         -0.1260    -3.1830     0.2190 ha         1 GNY       0.093000
     28 H1          -1.5450     2.5610    -0.0740 h4         1 GNY       0.038100
     29 H12         -1.8040    -2.7190     0.2270 ho         1 GNY       0.437000
@<TRIPOS>BOND
     1     1    12 ar  
     2     1    14 ar  
     3     1    28 1   
     4     2     6 ar  
     5     2    10 ar  
     6     2    14 ar  
     7     3     4 1   
     8     3    18 1   
     9     3    19 1   
    10     3    20 1   
    11     4     5 1   
    12     4     6 1   
    13     4    21 1   
    14     5    22 1   
    15     5    23 1   
    16     5    24 1   
    17     6     7 ar  
    18     7     8 ar  
    19     7    25 1   
    20     8     9 ar  
    21     8    26 1   
    22     9    10 ar  
    23     9    27 1   
    24    10    11 ar  
    25    11    12 ar  
    26    11    15 1   
    27    12    13 1   
    28    13    16 1   
    29    13    17 1   
    30    15    29 1   
@<TRIPOS>SUBSTRUCTURE
     1 GNY         1 TEMP              0 ****  ****    0 ROOT
