@<TRIPOS>MOLECULE
GNY
   29    30     1     0     0
SMALL
abcg2


@<TRIPOS>ATOM
      1 C15         -0.9970     1.4840    -0.1580 ca         1 GNY       0.406900
      2 C17          0.7830     0.0920     0.1400 ca         1 GNY       0.292000
      3 C01          4.4160     0.9730     0.9720 c3         1 GNY      -0.080600
      4 C02          3.0860     1.1540     0.2490 c3         1 GNY      -0.010400
      5 C03          3.3240     1.5600    -1.2080 c3         1 GNY      -0.080600
      6 C04          2.1920    -0.0640     0.3080 ca         1 GNY      -0.049300
      7 C05          2.6920    -1.3300     0.4850 ca         1 GNY      -0.122000
      8 C06          1.8550    -2.4600     0.4990 ca         1 GNY      -0.141000
      9 C07          0.5060    -2.3260     0.3320 ca         1 GNY      -0.094000
     10 C08         -0.0640    -1.0460     0.1490 ca         1 GNY      -0.163000
     11 C09         -1.4670    -0.8380    -0.0360 ca         1 GNY       0.178100
     12 C11         -1.9490     0.4480    -0.1940 ca         1 GNY      -0.220600
     13 C12         -3.4120     0.8150    -0.4030 c          1 GNY       0.726600
     14 N16          0.2940     1.3430    -0.0160 nb         1 GNY      -0.743000
     15 O10         -2.3180    -1.8650    -0.0260 oh         1 GNY      -0.480100
     16 O13         -3.7270     1.9700    -0.0550 o          1 GNY      -0.709500
     17 O14         -4.1550    -0.0390    -0.9140 o          1 GNY      -0.709500
     18 H2           4.2800     0.6500     2.0050 hc         1 GNY       0.027367
     19 H3           5.0610     0.2460     0.4740 hc         1 GNY       0.027367
     20 H4           4.9560     1.9210     0.9890 hc         1 GNY       0.027367
     21 H5           2.5510     1.9740     0.7330 hc         1 GNY       0.077700
     22 H6           3.8420     0.7670    -1.7520 hc         1 GNY       0.027367
     23 H7           2.3850     1.7680    -1.7210 hc         1 GNY       0.027367
     24 H8           3.9420     2.4590    -1.2600 hc         1 GNY       0.027367
     25 H9           3.7550    -1.4790     0.6210 ha         1 GNY       0.097000
     26 H10          2.2860    -3.4420     0.6420 ha         1 GNY       0.094000
     27 H11         -0.0970    -3.2270     0.3450 ha         1 GNY       0.093000
     28 H1          -1.3590     2.5010    -0.2640 h4         1 GNY       0.038100
     29 H12         -1.8640    -2.7010     0.1180 ho         1 GNY       0.437000
@<TRIPOS>BOND
     1     1    12 ar  
     2     1    14 ar  
     3     1    28 1   
     4     2     6 ar  
     5     2    10 ar  
     6     2    14 ar  
     7     3     4 1   
     8     3    18 1   
     9     3    19 1   
    10     3    20 1   
    11     4     5 1   
    12     4     6 1   
    13     4    21 1   
    14     5    22 1   
    15     5    23 1   
    16     5    24 1   
    17     6     7 ar  
    18     7     8 ar  
    19     7    25 1   
    20     8     9 ar  
    21     8    26 1   
    22     9    10 ar  
    23     9    27 1   
    24    10    11 ar  
    25    11    12 ar  
    26    11    15 1   
    27    12    13 1   
    28    13    16 1   
    29    13    17 1   
    30    15    29 1   
@<TRIPOS>SUBSTRUCTURE
     1 GNY         1 TEMP              0 ****  ****    0 ROOT
