@<TRIPOS>MOLECULE
GO0
   23    24     1     0     0
SMALL
No Charge or Current Charge


@<TRIPOS>ATOM
      1 Cl1         -3.9970     1.0110     0.3930 cl         1 GO0      -0.273000
      2 C2          -2.7070    -0.1470     0.0850 ca         1 GO0       0.093000
      3 C3          -1.3800     0.2740    -0.0810 ca         1 GO0      -0.070200
      4 N4          -0.8980     1.5620    -0.0450 na         1 GO0      -0.182700
      5 C6           0.4920     1.5890    -0.2680 cc         1 GO0      -0.125300
      6 C7           0.8600     0.2340    -0.4250 cd         1 GO0      -0.032400
      7 C8          -0.3490    -0.6000    -0.3210 ca         1 GO0      -0.070800
      8 C9          -0.6110    -1.9930    -0.4240 ca         1 GO0       0.205000
      9 C10         -1.9420    -2.4370    -0.2590 ca         1 GO0      -0.192000
     10 C12         -2.9870    -1.5220    -0.0020 ca         1 GO0      -0.123000
     11 Cl14         0.6050    -3.2200    -0.7740 cl         1 GO0      -0.206000
     12 C15          2.2730    -0.3030    -0.6160 c3         1 GO0      -0.156200
     13 C18          2.9500    -0.6460     0.7280 c          1 GO0       0.729000
     14 O19          3.5500     0.2360     1.3240 o          1 GO0      -0.755000
     15 O20          2.7640    -1.7540     1.2080 o          1 GO0      -0.755000
     16 C22          1.3380     2.8260    -0.3150 c          1 GO0       0.734200
     17 O23          2.5300     2.7810    -0.5710 o          1 GO0      -0.727000
     18 O24          0.7660     3.8900    -0.1170 o          1 GO0      -0.727000
     19 H10         -2.1660    -3.4980    -0.3340 ha         1 GO0       0.094000
     20 H12         -4.0060    -1.8780     0.1210 ha         1 GO0       0.088000
     21 H15          2.2020    -1.1990    -1.2330 hc         1 GO0       0.045200
     22 H15A         2.8600     0.4580    -1.1340 hc         1 GO0       0.045200
     23 HN4         -1.4680     2.3870     0.1120 hn         1 GO0       0.361000
@<TRIPOS>BOND
     1     1     2 1   
     2     2     3 ar  
     3     2    10 ar  
     4     3     4 1   
     5     3     7 ar  
     6     4     5 1   
     7     4    23 1   
     8     5     6 2   
     9     5    16 1   
    10     6     7 1   
    11     6    12 1   
    12     7     8 ar  
    13     8     9 ar  
    14     8    11 1   
    15     9    10 ar  
    16     9    19 1   
    17    10    20 1   
    18    12    13 1   
    19    12    21 1   
    20    12    22 1   
    21    13    14 1   
    22    13    15 1   
    23    16    17 1   
    24    16    18 1   
@<TRIPOS>SUBSTRUCTURE
     1 GO0         1 TEMP              0 ****  ****    0 ROOT
