@<TRIPOS>MOLECULE
GO0
   23    24     1     0     0
SMALL
bcc


@<TRIPOS>ATOM
      1 CL1         -3.9370     1.1130     0.2840 cl         1 GO0      -0.181400
      2 C2          -2.6860    -0.0660     0.0830 ca         1 GO0       0.001400
      3 C3          -1.3740     0.3600    -0.1090 ca         1 GO0      -0.070200
      4 N4          -0.8630     1.6050    -0.1700 na         1 GO0      -0.132400
      5 C6           0.4950     1.5450    -0.3640 cc         1 GO0      -0.125300
      6 C7           0.8920     0.2290    -0.4290 cd         1 GO0      -0.032400
      7 C8          -0.3010    -0.5510    -0.2760 ca         1 GO0      -0.070800
      8 C9          -0.6160    -1.9160    -0.2500 ca         1 GO0       0.113400
      9 C10         -1.9150    -2.3400    -0.0610 ca         1 GO0      -0.210000
     10 C12         -2.9540    -1.4150     0.1100 ca         1 GO0      -0.141000
     11 CL14         0.6130    -3.1150    -0.4820 cl         1 GO0      -0.114400
     12 C15          2.2740    -0.3010    -0.5940 c3         1 GO0      -0.156200
     13 C18          2.8520    -0.9930     0.6590 c          1 GO0       0.939600
     14 O19          2.2610    -0.8330     1.7420 o          1 GO0      -0.860300
     15 O20          3.9050    -1.6390     0.4690 o          1 GO0      -0.860300
     16 C22          1.2430     2.8510    -0.4530 c          1 GO0       0.944800
     17 O23          2.4690     2.8080    -0.6550 o          1 GO0      -0.832300
     18 O24          0.5370     3.8710    -0.3070 o          1 GO0      -0.832300
     19 H10         -2.1440    -3.3960    -0.0420 ha         1 GO0       0.112000
     20 H12         -3.9650    -1.7680     0.2610 ha         1 GO0       0.106000
     21 H15          2.3230    -0.9980    -1.4340 hc         1 GO0       0.045200
     22 H15A         2.9360     0.5280    -0.8490 hc         1 GO0       0.045200
     23 HN4         -1.3670     2.4730    -0.0800 hn         1 GO0       0.310700
@<TRIPOS>BOND
     1     1     2 1   
     2     2     3 ar  
     3     2    10 ar  
     4     3     4 1   
     5     3     7 ar  
     6     4     5 1   
     7     4    23 1   
     8     5     6 2   
     9     5    16 1   
    10     6     7 1   
    11     6    12 1   
    12     7     8 ar  
    13     8     9 ar  
    14     8    11 1   
    15     9    10 ar  
    16     9    19 1   
    17    10    20 1   
    18    12    13 1   
    19    12    21 1   
    20    12    22 1   
    21    13    14 1   
    22    13    15 1   
    23    16    17 1   
    24    16    18 1   
@<TRIPOS>SUBSTRUCTURE
     1 GO0         1 TEMP              0 ****  ****    0 ROOT
