@<TRIPOS>MOLECULE
GO1
   23    24     1     0     0
SMALL
bcc


@<TRIPOS>ATOM
      1 CL1         -2.5160    -2.8860    -0.3220 cl         1 GO1      -0.178400
      2 C2          -1.9820    -1.2580    -0.0860 ca         1 GO1       0.009400
      3 C3          -0.6260    -1.0000     0.0880 ca         1 GO1      -0.074200
      4 N4           0.4460    -1.8210     0.1170 na         1 GO1      -0.134400
      5 C6           1.5890    -1.0840     0.3300 cc         1 GO1      -0.125300
      6 C7           1.2600     0.2470     0.4350 cd         1 GO1      -0.042400
      7 C8          -0.1590     0.3190     0.2840 ca         1 GO1      -0.073800
      8 C9          -1.0670     1.3820     0.2950 ca         1 GO1      -0.022000
      9 C11         -2.4020     1.0920     0.1280 ca         1 GO1      -0.037600
     10 C12         -2.8790    -0.2130    -0.0670 ca         1 GO1      -0.142000
     11 CL14        -3.5670     2.3860     0.1430 cl         1 GO1      -0.195400
     12 C15          2.1340     1.4240     0.6930 c3         1 GO1      -0.153200
     13 C18          2.2700     2.4180    -0.4840 c          1 GO1       0.934600
     14 O19          1.6920     2.1470    -1.5520 o          1 GO1      -0.858300
     15 O20          2.9660     3.4270    -0.2480 o          1 GO1      -0.858300
     16 C22          2.8990    -1.8240     0.4070 c          1 GO1       0.943800
     17 O23          3.9280    -1.1520     0.5950 o          1 GO1      -0.831300
     18 O24          2.8170    -3.0620     0.2720 o          1 GO1      -0.831300
     19 H9          -0.7340     2.4010     0.4430 ha         1 GO1       0.158000
     20 H12         -3.9360    -0.3970    -0.1980 ha         1 GO1       0.120000
     21 H15          1.7460     1.9810     1.5530 hc         1 GO1       0.040700
     22 H15A         3.1300     1.0860     0.9780 hc         1 GO1       0.040700
     23 HN4          0.4500    -2.8230     0.0200 hn         1 GO1       0.310700
@<TRIPOS>BOND
     1     1     2 1   
     2     2     3 ar  
     3     2    10 ar  
     4     3     4 1   
     5     3     7 ar  
     6     4     5 1   
     7     4    23 1   
     8     5     6 2   
     9     5    16 1   
    10     6     7 1   
    11     6    12 1   
    12     7     8 ar  
    13     8     9 ar  
    14     8    19 1   
    15     9    10 ar  
    16     9    11 1   
    17    10    20 1   
    18    12    13 1   
    19    12    21 1   
    20    12    22 1   
    21    13    14 1   
    22    13    15 1   
    23    16    17 1   
    24    16    18 1   
@<TRIPOS>SUBSTRUCTURE
     1 GO1         1 TEMP              0 ****  ****    0 ROOT
