@<TRIPOS>MOLECULE
GO1
   23    24     1     0     0
SMALL
No Charge or Current Charge


@<TRIPOS>ATOM
      1 Cl1         -2.6690    -2.7940    -0.3690 cl         1 GO1      -0.270000
      2 C2          -2.0570    -1.1740    -0.0500 ca         1 GO1       0.101000
      3 C3          -0.6830    -0.9330     0.0990 ca         1 GO1      -0.074200
      4 N4           0.3700    -1.8220     0.0330 na         1 GO1      -0.184700
      5 C6           1.6020    -1.1590     0.2460 cc         1 GO1      -0.125300
      6 C7           1.2500     0.1920     0.4400 cd         1 GO1      -0.042400
      7 C8          -0.1940     0.3160     0.3460 ca         1 GO1      -0.073800
      8 C9          -1.0440     1.4280     0.4640 ca         1 GO1      -0.004000
      9 C11         -2.4320     1.2160     0.3190 ca         1 GO1       0.054000
     10 C12         -2.9390    -0.0800     0.0630 ca         1 GO1      -0.124000
     11 Cl14        -3.5450     2.5710     0.4580 cl         1 GO1      -0.287000
     12 C15          2.1480     1.3890     0.7100 c3         1 GO1      -0.153200
     13 C18          2.4240     2.2040    -0.5690 c          1 GO1       0.724000
     14 O19          3.3710     1.8860    -1.2740 o          1 GO1      -0.753000
     15 O20          1.6190     3.0670    -0.8870 o          1 GO1      -0.753000
     16 C22          2.9570    -1.7960     0.2540 c          1 GO1       0.733200
     17 O23          3.9660    -1.1410     0.4650 o          1 GO1      -0.726000
     18 O24          3.0030    -3.0010     0.0510 o          1 GO1      -0.726000
     19 H9          -0.6520     2.4220     0.6590 ha         1 GO1       0.140000
     20 H12         -4.0090    -0.2330    -0.0470 ha         1 GO1       0.102000
     21 H15          1.6080     2.0200     1.4240 hc         1 GO1       0.040700
     22 H15A         3.0900     1.0310     1.1290 hc         1 GO1       0.040700
     23 HN4          0.2770    -2.8180    -0.1400 hn         1 GO1       0.361000
@<TRIPOS>BOND
     1     1     2 1   
     2     2     3 ar  
     3     2    10 ar  
     4     3     4 1   
     5     3     7 ar  
     6     4     5 1   
     7     4    23 1   
     8     5     6 2   
     9     5    16 1   
    10     6     7 1   
    11     6    12 1   
    12     7     8 ar  
    13     8     9 ar  
    14     8    19 1   
    15     9    10 ar  
    16     9    11 1   
    17    10    20 1   
    18    12    13 1   
    19    12    21 1   
    20    12    22 1   
    21    13    14 1   
    22    13    15 1   
    23    16    17 1   
    24    16    18 1   
@<TRIPOS>SUBSTRUCTURE
     1 GO1         1 TEMP              0 ****  ****    0 ROOT
