@<TRIPOS>MOLECULE
GO2
   21    22     1     0     0
SMALL
bcc


@<TRIPOS>ATOM
      1 C4          -1.3990    -0.7990     0.0110 ca         1 GO2       0.132400
      2 C5          -2.5780     1.3340    -0.0470 ca         1 GO2      -0.081000
      3 C6          -3.7780     0.6400    -0.0390 ca         1 GO2      -0.136000
      4 C7          -3.7930    -0.7570    -0.0050 ca         1 GO2      -0.125000
      5 C8          -2.6150    -1.4830     0.0200 ca         1 GO2      -0.092000
      6 N2           2.9240     1.2900     0.0060 n2         1 GO2      -0.895100
      7 C3          -1.3970     0.6030    -0.0220 ca         1 GO2      -0.111100
      8 N3           4.3650    -0.5940     0.0590 nv         1 GO2      -0.962800
      9 C1           0.7710    -0.4800     0.0160 cc         1 GO2       0.615100
     10 C2           3.1580     0.0380     0.0110 c2         1 GO2       0.831100
     11 S1           0.2430     1.1910    -0.0220 ss         1 GO2       0.013900
     12 N4          -0.1560    -1.3800     0.0320 nd         1 GO2      -0.631100
     13 H1          -2.5660     2.4160    -0.0720 ha         1 GO2       0.137000
     14 H2          -4.7100     1.1880    -0.0590 ha         1 GO2       0.130000
     15 H3          -4.7400    -1.2800     0.0010 ha         1 GO2       0.130000
     16 H4          -2.6270    -2.5650     0.0460 ha         1 GO2       0.144000
     17 H5           2.2500    -1.8280     0.0810 hn         1 GO2       0.458800
     18 H6           3.7730     1.8400    -0.0340 hn         1 GO2       0.401400
     19 H7           4.4300    -1.5300    -0.3100 hn         1 GO2       0.414300
     20 H8           5.1690    -0.0290    -0.1610 hn         1 GO2       0.414300
     21 N1           2.0830    -0.8340     0.0300 nu         1 GO2      -0.789200
@<TRIPOS>BOND
     1     1     5 ar  
     2     1     7 ar  
     3     1    12 1   
     4     2     3 ar  
     5     2     7 ar  
     6     2    13 1   
     7     3     4 ar  
     8     3    14 1   
     9     4     5 ar  
    10     4    15 1   
    11     5    16 1   
    12     6    10 2   
    13     6    18 1   
    14     7    11 1   
    15     8    10 1   
    16     8    19 1   
    17     8    20 1   
    18     9    11 1   
    19     9    12 2   
    20     9    21 1   
    21    10    21 1   
    22    17    21 1   
@<TRIPOS>SUBSTRUCTURE
     1 GO2         1 TEMP              0 ****  ****    0 ROOT
