@<TRIPOS>MOLECULE
GO2
   21    22     1     0     0
SMALL
No Charge or Current Charge


@<TRIPOS>ATOM
      1 C4          -1.3500    -0.7190     0.0140 ca         1 GO2       0.132400
      2 C5          -2.6800     1.3110    -0.2150 ca         1 GO2      -0.063000
      3 C6          -3.8540     0.5550    -0.0410 ca         1 GO2      -0.118000
      4 C7          -3.7740    -0.8390     0.1600 ca         1 GO2      -0.107000
      5 C8          -2.5180    -1.4800     0.1880 ca         1 GO2      -0.074000
      6 N2           3.2110     1.2540     0.3850 n2         1 GO2      -0.895100
      7 C3          -1.4440     0.6460    -0.1830 ca         1 GO2      -0.238000
      8 N3           4.1620    -0.7830    -0.0490 nv         1 GO2      -1.073200
      9 C1           0.7820    -0.2550    -0.1580 cc         1 GO2       0.615100
     10 C2           3.1750     0.0740    -0.0060 c2         1 GO2       0.831100
     11 S1           0.1330     1.3970    -0.3830 ss         1 GO2       0.140800
     12 N4          -0.0690    -1.2610     0.0240 nd         1 GO2      -0.631100
     13 H1          -2.7320     2.3870    -0.3720 ha         1 GO2       0.119000
     14 H2          -4.8240     1.0460    -0.0620 ha         1 GO2       0.112000
     15 H3          -4.6820    -1.4220     0.2950 ha         1 GO2       0.112000
     16 H4          -2.4520    -2.5540     0.3420 ha         1 GO2       0.126000
     17 H5           2.2100    -1.5930    -0.0030 hn         1 GO2       0.514000
     18 H6           4.1900     1.4950     0.5710 hn         1 GO2       0.401400
     19 H7           4.1760    -1.2810    -0.9300 hn         1 GO2       0.469500
     20 H8           5.0590    -0.3760     0.1800 hn         1 GO2       0.469500
     21 N1           2.0860    -0.6200    -0.2140 nu         1 GO2      -0.844400
@<TRIPOS>BOND
     1     1     5 ar  
     2     1     7 ar  
     3     1    12 1   
     4     2     3 ar  
     5     2     7 ar  
     6     2    13 1   
     7     3     4 ar  
     8     3    14 1   
     9     4     5 ar  
    10     4    15 1   
    11     5    16 1   
    12     6    10 2   
    13     6    18 1   
    14     7    11 1   
    15     8    10 1   
    16     8    19 1   
    17     8    20 1   
    18     9    11 1   
    19     9    12 2   
    20     9    21 1   
    21    10    21 1   
    22    17    21 1   
@<TRIPOS>SUBSTRUCTURE
     1 GO2         1 TEMP              0 ****  ****    0 ROOT
