@<TRIPOS>MOLECULE
GO3
   68    71     1     0     0
SMALL
No Charge or Current Charge


@<TRIPOS>ATOM
      1 C9         255.2950   240.5520   267.5640 cp         1 GO3      -0.062500
      2 C10        254.4230   241.5520   268.2680 cp         1 GO3      -0.062500
      3 C11        256.9760   238.6690   266.2240 ca         1 GO3      -0.008000
      4 C12        252.7850   243.4720   269.6090 ca         1 GO3      -0.008000
      5 C13        256.1540   238.2220   267.3130 ca         1 GO3      -0.059500
      6 C14        252.2560   242.7700   268.4740 ca         1 GO3      -0.059500
      7 C15        257.8480   237.7650   265.5290 ca         1 GO3      -0.035300
      8 C16        252.0030   244.4510   270.3120 ca         1 GO3      -0.035300
      9 C17        256.0850   240.9600   266.4740 ca         1 GO3      -0.009800
     10 C18        254.9090   242.2280   269.4010 ca         1 GO3      -0.009800
     11 C19        258.8640   238.2640   264.4540 c3         1 GO3      -0.022400
     12 C20        252.6150   245.3340   271.4460 c3         1 GO3      -0.022400
     13 C21        255.3270   239.1960   267.9770 ca         1 GO3       0.189100
     14 C22        253.1070   241.8180   267.8110 ca         1 GO3       0.189100
     15 C23        256.8980   240.0280   265.8230 ca         1 GO3      -0.156000
     16 C24        254.0960   243.1600   270.0530 ca         1 GO3      -0.156000
     17 C25        256.1680   236.8220   267.6520 ca         1 GO3      -0.237600
     18 C26        250.8930   243.0250   268.0880 ca         1 GO3      -0.237600
     19 C27        257.7450   236.3850   265.8300 ca         1 GO3       0.056100
     20 C28        250.6390   244.5900   269.9570 ca         1 GO3       0.056100
     21 C29        256.9130   235.9290   266.8620 ca         1 GO3       0.156600
     22 C30        250.1120   243.8930   268.8640 ca         1 GO3       0.156600
     23 C31        256.0640   242.4040   265.9800 c3         1 GO3      -0.048300
     24 C32        256.3110   241.9550   269.9420 c3         1 GO3      -0.048300
     25 C33        260.2780   237.6270   264.5150 c3         1 GO3      -0.084600
     26 C34        258.2600   238.1870   263.0350 c3         1 GO3      -0.084600
     27 C35        252.2190   246.8350   271.4240 c3         1 GO3      -0.084600
     28 C36        252.3970   244.6970   272.8360 c3         1 GO3      -0.084600
     29 C37        255.4450   236.2020   268.8240 c          1 GO3       0.599000
     30 C38        250.1740   242.4190   266.9100 c          1 GO3       0.599000
     31 O1         254.5070   238.8730   269.0230 oh         1 GO3      -0.576100
     32 O2         252.6980   241.1020   266.7190 oh         1 GO3      -0.576100
     33 O3         258.4320   235.4310   265.1240 oh         1 GO3      -0.551600
     34 O4         249.7710   245.3870   270.6660 oh         1 GO3      -0.551600
     35 O5         256.8860   234.5760   267.1070 oh         1 GO3      -0.547600
     36 O6         248.8010   244.1100   268.5530 oh         1 GO3      -0.547600
     37 O7         255.4740   236.6780   269.9540 o          1 GO3      -0.547600
     38 O8         250.6630   242.3650   265.7850 o          1 GO3      -0.547600
     39 H191       259.1070   239.3120   264.6440 hc         1 GO3       0.057700
     40 H201       253.6950   245.4110   271.2970 hc         1 GO3       0.057700
     41 H231       257.4390   240.3980   264.9620 ha         1 GO3       0.114500
     42 H241       254.5150   243.6040   270.9470 ha         1 GO3       0.114500
     43 H311       255.0770   242.6670   265.5810 hc         1 GO3       0.045700
     44 H312       256.2930   243.1030   266.7930 hc         1 GO3       0.045700
     45 H313       256.7970   242.5810   265.1850 hc         1 GO3       0.045700
     46 H323       257.0690   242.0950   269.1630 hc         1 GO3       0.045700
     47 H322       256.5720   242.6230   270.7710 hc         1 GO3       0.045700
     48 H321       256.3940   240.9260   270.3100 hc         1 GO3       0.045700
     49 H331       260.6110   237.5180   265.5540 hc         1 GO3       0.038450
     50 H332       260.3160   236.6480   264.0250 hc         1 GO3       0.038450
     51 H333       261.0030   238.2670   263.9970 hc         1 GO3       0.038450
     52 H341       257.3170   238.7430   262.9850 hc         1 GO3       0.038450
     53 H342       258.9480   238.6150   262.2960 hc         1 GO3       0.038450
     54 H343       258.0580   237.1460   262.7540 hc         1 GO3       0.038450
     55 H353       252.9610   247.4260   271.9750 hc         1 GO3       0.038450
     56 H352       252.1910   247.2150   270.3950 hc         1 GO3       0.038450
     57 H351       251.2520   247.0270   271.9020 hc         1 GO3       0.038450
     58 H362       252.9020   245.2820   273.6150 hc         1 GO3       0.038450
     59 H361       251.3310   244.6420   273.0840 hc         1 GO3       0.038450
     60 H363       252.8040   243.6790   272.8620 hc         1 GO3       0.038450
     61 H371       254.9140   235.2440   268.6320 h4         1 GO3       0.009200
     62 H381       249.1370   242.0580   267.0910 h4         1 GO3       0.009200
     63 H011       254.9000   238.0940   269.4940 ho         1 GO3       0.508500
     64 H021       251.9790   241.6110   266.2650 ho         1 GO3       0.508500
     65 H031       258.2290   234.5700   265.5570 ho         1 GO3       0.479500
     66 H041       250.2450   245.7450   271.4450 ho         1 GO3       0.479500
     67 H051       255.9570   234.2580   267.0660 ho         1 GO3       0.492500
     68 H061       248.4810   244.7500   269.2310 ho         1 GO3       0.492500
@<TRIPOS>BOND
     1     1     2 1   
     2     1     9 ar  
     3     1    13 ar  
     4     2    10 ar  
     5     2    14 ar  
     6     3     5 ar  
     7     3     7 ar  
     8     3    15 ar  
     9     4     6 ar  
    10     4     8 ar  
    11     4    16 ar  
    12     5    13 ar  
    13     5    17 ar  
    14     6    14 ar  
    15     6    18 ar  
    16     7    11 1   
    17     7    19 ar  
    18     8    12 1   
    19     8    20 ar  
    20     9    15 ar  
    21     9    23 1   
    22    10    16 ar  
    23    10    24 1   
    24    11    25 1   
    25    11    26 1   
    26    11    39 1   
    27    12    27 1   
    28    12    28 1   
    29    12    40 1   
    30    13    31 1   
    31    14    32 1   
    32    15    41 1   
    33    16    42 1   
    34    17    21 ar  
    35    17    29 1   
    36    18    22 ar  
    37    18    30 1   
    38    19    21 ar  
    39    19    33 1   
    40    20    22 ar  
    41    20    34 1   
    42    21    35 1   
    43    22    36 1   
    44    23    43 1   
    45    23    44 1   
    46    23    45 1   
    47    24    46 1   
    48    24    47 1   
    49    24    48 1   
    50    25    49 1   
    51    25    50 1   
    52    25    51 1   
    53    26    52 1   
    54    26    53 1   
    55    26    54 1   
    56    27    55 1   
    57    27    56 1   
    58    27    57 1   
    59    28    58 1   
    60    28    59 1   
    61    28    60 1   
    62    29    37 2   
    63    29    61 1   
    64    30    38 2   
    65    30    62 1   
    66    31    63 1   
    67    32    64 1   
    68    33    65 1   
    69    34    66 1   
    70    35    67 1   
    71    36    68 1   
@<TRIPOS>SUBSTRUCTURE
     1 GO3         1 TEMP              0 ****  ****    0 ROOT
