@<TRIPOS>MOLECULE
GO3
   68    71     1     0     0
SMALL
bcc


@<TRIPOS>ATOM
      1 C9         255.4160   240.6450   267.6190 cp         1 GO3      -0.062500
      2 C10        254.5410   241.6310   268.2960 cp         1 GO3      -0.062500
      3 C11        257.0010   238.7340   266.3060 ca         1 GO3      -0.008000
      4 C12        252.8530   243.4810   269.5470 ca         1 GO3      -0.008000
      5 C13        256.2710   238.3540   267.4690 ca         1 GO3      -0.059500
      6 C14        252.4230   242.8700   268.3340 ca         1 GO3      -0.059500
      7 C15        257.7350   237.7620   265.5380 ca         1 GO3      -0.035300
      8 C16        251.9960   244.3970   270.2640 ca         1 GO3      -0.035300
      9 C17        256.1840   241.0240   266.5070 ca         1 GO3      -0.009800
     10 C18        254.9600   242.2590   269.4760 ca         1 GO3      -0.009800
     11 C19        258.5560   238.1760   264.3320 c3         1 GO3      -0.022400
     12 C20        252.5100   245.1250   271.4900 c3         1 GO3      -0.022400
     13 C21        255.4520   239.3420   268.0880 ca         1 GO3       0.189100
     14 C22        253.2970   241.9090   267.7460 ca         1 GO3       0.189100
     15 C23        256.9510   240.0760   265.8760 ca         1 GO3      -0.174000
     16 C24        254.1180   243.1620   270.0770 ca         1 GO3      -0.174000
     17 C25        256.3490   236.9730   267.9050 ca         1 GO3      -0.237600
     18 C26        251.1090   243.2080   267.8150 ca         1 GO3      -0.237600
     19 C27        257.5900   236.4360   265.8540 ca         1 GO3       0.056100
     20 C28        250.7050   244.5320   269.8430 ca         1 GO3       0.056100
     21 C29        256.9180   236.0460   267.0390 ca         1 GO3       0.156600
     22 C30        250.2620   243.9620   268.6210 ca         1 GO3       0.156600
     23 C31        256.1540   242.4370   266.0070 c3         1 GO3      -0.048300
     24 C32        256.2980   241.9430   270.0750 c3         1 GO3      -0.048300
     25 C33        259.9480   237.5430   264.2480 c3         1 GO3      -0.084600
     26 C34        257.7620   237.9800   263.0380 c3         1 GO3      -0.084600
     27 C35        252.0720   246.5870   271.6260 c3         1 GO3      -0.084600
     28 C36        252.2200   244.3260   272.7650 c3         1 GO3      -0.084600
     29 C37        256.1100   236.4780   269.2470 c          1 GO3       0.599000
     30 C38        250.5930   242.9810   266.4810 c          1 GO3       0.599000
     31 O1         254.6180   239.0710   269.1000 oh         1 GO3      -0.537100
     32 O2         252.9720   241.1720   266.6790 oh         1 GO3      -0.537100
     33 O3         258.1100   235.4790   265.0680 oh         1 GO3      -0.512600
     34 O4         249.7460   245.2770   270.4540 oh         1 GO3      -0.512600
     35 O5         256.9640   234.7200   267.2460 oh         1 GO3      -0.508600
     36 O6         249.0090   244.2050   268.2520 oh         1 GO3      -0.508600
     37 O7         255.7020   237.1060   270.2170 o          1 GO3      -0.547600
     38 O8         251.1590   242.4410   265.5340 o          1 GO3      -0.547600
     39 H191       258.7500   239.2420   264.4240 hc         1 GO3       0.057700
     40 H201       253.5930   245.1800   271.3870 hc         1 GO3       0.057700
     41 H231       257.5000   240.3860   265.0000 ha         1 GO3       0.132500
     42 H241       254.4470   243.6100   271.0020 ha         1 GO3       0.132500
     43 H311       255.1630   242.7070   265.6390 hc         1 GO3       0.045700
     44 H312       256.4030   243.1470   266.7970 hc         1 GO3       0.045700
     45 H313       256.8630   242.5790   265.1930 hc         1 GO3       0.045700
     46 H323       257.1040   242.0850   269.3540 hc         1 GO3       0.045700
     47 H322       256.5020   242.5780   270.9360 hc         1 GO3       0.045700
     48 H321       256.3460   240.9050   270.4070 hc         1 GO3       0.045700
     49 H331       260.4680   237.5900   265.2060 hc         1 GO3       0.038450
     50 H332       259.9300   236.5070   263.9200 hc         1 GO3       0.038450
     51 H333       260.5420   238.1060   263.5270 hc         1 GO3       0.038450
     52 H341       256.8170   238.5240   263.0670 hc         1 GO3       0.038450
     53 H342       258.3340   238.3530   262.1870 hc         1 GO3       0.038450
     54 H343       257.5420   236.9280   262.8550 hc         1 GO3       0.038450
     55 H353       252.7520   247.0820   272.3200 hc         1 GO3       0.038450
     56 H352       252.1310   247.1180   270.6760 hc         1 GO3       0.038450
     57 H351       251.0690   246.7170   272.0260 hc         1 GO3       0.038450
     58 H362       252.6700   244.8190   273.6270 hc         1 GO3       0.038450
     59 H361       251.1480   244.2420   272.9570 hc         1 GO3       0.038450
     60 H363       252.6250   243.3160   272.7040 hc         1 GO3       0.038450
     61 H371       256.4010   235.4360   269.4230 h4         1 GO3       0.009200
     62 H381       249.5940   243.3870   266.2980 h4         1 GO3       0.009200
     63 H011       254.9720   238.3320   269.6580 ho         1 GO3       0.469500
     64 H021       252.2910   241.6290   266.1160 ho         1 GO3       0.469500
     65 H031       257.9100   234.6060   265.4310 ho         1 GO3       0.440500
     66 H041       249.7000   245.0990   271.4000 ho         1 GO3       0.440500
     67 H051       256.2000   234.3720   267.7200 ho         1 GO3       0.453500
     68 H061       248.5840   244.7630   268.9230 ho         1 GO3       0.453500
@<TRIPOS>BOND
     1     1     2 1   
     2     1     9 ar  
     3     1    13 ar  
     4     2    10 ar  
     5     2    14 ar  
     6     3     5 ar  
     7     3     7 ar  
     8     3    15 ar  
     9     4     6 ar  
    10     4     8 ar  
    11     4    16 ar  
    12     5    13 ar  
    13     5    17 ar  
    14     6    14 ar  
    15     6    18 ar  
    16     7    11 1   
    17     7    19 ar  
    18     8    12 1   
    19     8    20 ar  
    20     9    15 ar  
    21     9    23 1   
    22    10    16 ar  
    23    10    24 1   
    24    11    25 1   
    25    11    26 1   
    26    11    39 1   
    27    12    27 1   
    28    12    28 1   
    29    12    40 1   
    30    13    31 1   
    31    14    32 1   
    32    15    41 1   
    33    16    42 1   
    34    17    21 ar  
    35    17    29 1   
    36    18    22 ar  
    37    18    30 1   
    38    19    21 ar  
    39    19    33 1   
    40    20    22 ar  
    41    20    34 1   
    42    21    35 1   
    43    22    36 1   
    44    23    43 1   
    45    23    44 1   
    46    23    45 1   
    47    24    46 1   
    48    24    47 1   
    49    24    48 1   
    50    25    49 1   
    51    25    50 1   
    52    25    51 1   
    53    26    52 1   
    54    26    53 1   
    55    26    54 1   
    56    27    55 1   
    57    27    56 1   
    58    27    57 1   
    59    28    58 1   
    60    28    59 1   
    61    28    60 1   
    62    29    37 2   
    63    29    61 1   
    64    30    38 2   
    65    30    62 1   
    66    31    63 1   
    67    32    64 1   
    68    33    65 1   
    69    34    66 1   
    70    35    67 1   
    71    36    68 1   
@<TRIPOS>SUBSTRUCTURE
     1 GO3         1 TEMP              0 ****  ****    0 ROOT
