@<TRIPOS>MOLECULE
GO4
   62    67     1     0     0
SMALL
No Charge or Current Charge


@<TRIPOS>ATOM
      1 C10         40.6140   -11.7760   -34.4800 ca         1 GO4      -0.062300
      2 C15         42.8300   -11.3380   -33.5390 ca         1 GO4      -0.085000
      3 C17         39.3770   -15.2500   -39.4550 ca         1 GO4      -0.057800
      4 C20         38.8800   -16.6030   -41.8270 ca         1 GO4      -0.075000
      5 C21         37.7730   -16.1930   -41.0250 ca         1 GO4      -0.076000
      6 C22         36.3720   -16.4790   -41.4170 cc         1 GO4       0.017000
      7 C24         34.7450   -16.8490   -43.1270 cd         1 GO4      -0.043000
      8 C26         32.8910   -17.1550   -44.0350 cc         1 GO4       0.610900
      9 C28         32.1150   -17.4640   -46.3630 c          1 GO4       0.647100
     10 C1          42.9220   -15.5400   -40.2500 c3         1 GO4       0.059900
     11 C3          41.3650   -14.5840   -38.4310 cc         1 GO4      -0.122100
     12 C4          39.9730   -14.5790   -38.3120 cd         1 GO4      -0.208400
     13 C5          39.2200   -13.9740   -37.1720 c          1 GO4       0.644300
     14 C8          39.5570   -12.7500   -35.0000 c3         1 GO4       0.166000
     15 C9          39.1480   -13.7920   -33.9370 c3         1 GO4      -0.106100
     16 C11         40.3570   -10.3890   -34.4820 ca         1 GO4      -0.140000
     17 C12         41.3270    -9.4900   -34.0130 ca         1 GO4       0.172000
     18 C14         42.5620    -9.9580   -33.5400 ca         1 GO4      -0.150000
     19 C16         41.8600   -12.2420   -34.0080 ca         1 GO4      -0.114000
     20 C18         40.4220   -15.6440   -40.2400 ca         1 GO4      -0.054200
     21 C19         40.2090   -16.3300   -41.4420 ca         1 GO4      -0.126000
     22 C23         36.1080   -16.6370   -42.7720 cd         1 GO4      -0.101000
     23 C30         30.8110   -17.6780   -47.0940 cx         1 GO4      -0.250700
     24 C31         30.5230   -16.8590   -48.3390 cx         1 GO4      -0.096400
     25 C32         29.7640   -16.5800   -47.0630 cx         1 GO4      -0.096400
     26 C35         33.9260   -16.6860   -40.8520 cd         1 GO4      -0.072000
     27 C36         35.2540   -16.4770   -40.4850 cc         1 GO4      -0.156000
     28 C37         38.0430   -15.5080   -39.8090 ca         1 GO4      -0.027000
     29 F13         41.0710    -8.1640   -34.0170 f          1 GO4      -0.181000
     30 N2          41.6130   -15.2550   -39.6420 na         1 GO4      -0.073700
     31 N7          40.0300   -13.3970   -36.2210 ns         1 GO4      -0.513900
     32 N25         34.2280   -17.0200   -44.3210 nc         1 GO4      -0.393300
     33 N27         31.9560   -17.3540   -45.0080 ns         1 GO4      -0.403400
     34 N33         32.5060   -17.0790   -42.7720 nd         1 GO4      -0.666100
     35 N34         33.7280   -16.8910   -42.2140 na         1 GO4       0.305400
     36 O6          38.0020   -13.9740   -37.0740 o          1 GO4      -0.602100
     37 O29         33.1840   -17.4110   -46.9530 o          1 GO4      -0.538100
     38 H151        43.7870   -11.7070   -33.1760 ha         1 GO4       0.115000
     39 H201        38.7320   -17.1690   -42.7420 ha         1 GO4       0.119000
     40 H012        43.7220   -15.1430   -39.6130 h1         1 GO4       0.054367
     41 H013        43.0500   -16.6240   -40.3580 h1         1 GO4       0.054367
     42 H011        42.9790   -15.0660   -41.2380 h1         1 GO4       0.054367
     43 H031        42.1600   -14.1960   -37.8040 h4         1 GO4       0.208000
     44 H081        38.6580   -12.1720   -35.2550 h1         1 GO4       0.074700
     45 H092        38.8140   -13.2900   -33.0210 hc         1 GO4       0.045033
     46 H093        38.3240   -14.4150   -34.3020 hc         1 GO4       0.045033
     47 H091        39.9870   -14.4500   -33.6830 hc         1 GO4       0.045033
     48 H111        39.4080   -10.0050   -34.8460 ha         1 GO4       0.131000
     49 H141        43.3080    -9.2550   -33.1790 ha         1 GO4       0.131000
     50 H161        42.0820   -13.3060   -34.0060 ha         1 GO4       0.113000
     51 H191        41.0410   -16.6540   -42.0620 ha         1 GO4       0.118000
     52 H231        36.8640   -16.5770   -43.5440 ha         1 GO4       0.150000
     53 H301        30.4510   -18.7030   -47.0920 hc         1 GO4       0.086700
     54 H311        29.9860   -17.3420   -49.1520 hc         1 GO4       0.082700
     55 H312        31.2610   -16.1260   -48.6580 hc         1 GO4       0.082700
     56 H321        29.9940   -15.6560   -46.5350 hc         1 GO4       0.082700
     57 H322        28.7170   -16.8750   -47.0230 hc         1 GO4       0.082700
     58 H351        33.0670   -16.7070   -40.1940 h4         1 GO4       0.162000
     59 H361        35.4610   -16.3340   -39.4320 ha         1 GO4       0.142000
     60 H371        37.2420   -15.1560   -39.1700 ha         1 GO4       0.145000
     61 H071        41.0240   -13.4270   -36.3900 hn         1 GO4       0.309500
     62 H271        31.0040   -17.4310   -44.6900 hn         1 GO4       0.334500
@<TRIPOS>BOND
     1     1    14 1   
     2     1    16 ar  
     3     1    19 ar  
     4     2    18 ar  
     5     2    19 ar  
     6     2    38 1   
     7     3    12 1   
     8     3    20 ar  
     9     3    28 ar  
    10     4     5 ar  
    11     4    21 ar  
    12     4    39 1   
    13     5     6 1   
    14     5    28 ar  
    15     6    22 2   
    16     6    27 1   
    17     7    22 1   
    18     7    32 2   
    19     7    35 1   
    20     8    32 1   
    21     8    33 1   
    22     8    34 2   
    23     9    23 1   
    24     9    33 1   
    25     9    37 2   
    26    10    30 1   
    27    10    40 1   
    28    10    41 1   
    29    10    42 1   
    30    11    12 2   
    31    11    30 1   
    32    11    43 1   
    33    12    13 1   
    34    13    31 1   
    35    13    36 2   
    36    14    15 1   
    37    14    31 1   
    38    14    44 1   
    39    15    45 1   
    40    15    46 1   
    41    15    47 1   
    42    16    17 ar  
    43    16    48 1   
    44    17    18 ar  
    45    17    29 1   
    46    18    49 1   
    47    19    50 1   
    48    20    21 ar  
    49    20    30 1   
    50    21    51 1   
    51    22    52 1   
    52    23    24 1   
    53    23    25 1   
    54    23    53 1   
    55    24    25 1   
    56    24    54 1   
    57    24    55 1   
    58    25    56 1   
    59    25    57 1   
    60    26    27 2   
    61    26    35 1   
    62    26    58 1   
    63    27    59 1   
    64    28    60 1   
    65    31    61 1   
    66    33    62 1   
    67    34    35 1   
@<TRIPOS>SUBSTRUCTURE
     1 GO4         1 TEMP              0 ****  ****    0 ROOT
