@<TRIPOS>MOLECULE
GO4
   62    67     1     0     0
SMALL
bcc


@<TRIPOS>ATOM
      1 C10         39.9270   -12.0940   -34.9110 ca         1 GO4      -0.062300
      2 C15         40.6450   -10.0090   -35.8840 ca         1 GO4      -0.103000
      3 C17         39.7210   -15.7680   -39.1560 ca         1 GO4      -0.057800
      4 C20         39.0300   -16.9970   -41.5550 ca         1 GO4      -0.093000
      5 C21         38.0380   -16.3900   -40.7580 ca         1 GO4      -0.076000
      6 C22         36.6310   -16.4020   -41.2020 cc         1 GO4       0.017000
      7 C24         34.9530   -16.3220   -42.9130 cd         1 GO4       0.007700
      8 C26         33.0630   -16.3150   -43.7880 cc         1 GO4       0.610900
      9 C28         32.0660   -16.2090   -46.0470 c          1 GO4       0.714100
     10 C1          43.1570   -16.7240   -39.9240 c3         1 GO4       0.030600
     11 C3          41.7510   -15.5770   -38.2120 cc         1 GO4      -0.072100
     12 C4          40.4280   -15.2540   -38.0150 cd         1 GO4      -0.208400
     13 C5          39.8230   -14.5260   -36.8940 c          1 GO4       0.711300
     14 C8          40.1130   -13.5760   -34.6560 c3         1 GO4       0.166000
     15 C9          41.0790   -13.7920   -33.4960 c3         1 GO4      -0.106100
     16 C11         38.9010   -11.4200   -34.2570 ca         1 GO4      -0.158000
     17 C12         38.7730   -10.0550   -34.4280 ca         1 GO4       0.136900
     18 C14         39.6260    -9.3260   -35.2330 ca         1 GO4      -0.168000
     19 C16         40.7980   -11.3790   -35.7260 ca         1 GO4      -0.132000
     20 C18         40.6860   -16.3850   -39.9770 ca         1 GO4      -0.054200
     21 C19         40.3550   -17.0040   -41.1790 ca         1 GO4      -0.144000
     22 C23         36.3020   -16.3010   -42.5350 cd         1 GO4      -0.119000
     23 C30         30.7230   -16.1930   -46.6830 cx         1 GO4      -0.250700
     24 C31         30.5730   -16.8670   -48.0230 cx         1 GO4      -0.096400
     25 C32         30.5570   -15.3860   -47.9460 cx         1 GO4      -0.096400
     26 C35         34.2810   -16.5370   -40.6290 cd         1 GO4      -0.039300
     27 C36         35.5850   -16.5230   -40.2470 cc         1 GO4      -0.174000
     28 C37         38.3850   -15.7800   -39.5600 ca         1 GO4      -0.045000
     29 F13         37.7760    -9.4170   -33.7910 f          1 GO4      -0.145900
     30 N2          41.9080   -16.2500   -39.3760 na         1 GO4      -0.044400
     31 N7          40.6030   -14.2870   -35.8160 ns         1 GO4      -0.580900
     32 N25         34.3600   -16.2410   -44.1010 nc         1 GO4      -0.393300
     33 N27         32.0150   -16.2750   -44.6790 ns         1 GO4      -0.470400
     34 N33         32.7760   -16.4340   -42.4990 nd         1 GO4      -0.666100
     35 N34         33.9950   -16.4360   -41.9450 na         1 GO4       0.204000
     36 O6          38.6540   -14.1560   -36.9300 o          1 GO4      -0.602100
     37 O29         33.0980   -16.1680   -46.6830 o          1 GO4      -0.538100
     38 H151        41.3270    -9.4610   -36.5220 ha         1 GO4       0.133000
     39 H201        38.7460   -17.4940   -42.4740 ha         1 GO4       0.137000
     40 H012        43.9520   -16.5480   -39.2050 h1         1 GO4       0.054367
     41 H013        43.1020   -17.7930   -40.1280 h1         1 GO4       0.054367
     42 H011        43.3980   -16.2010   -40.8490 h1         1 GO4       0.054367
     43 H031        42.6150   -15.3660   -37.6000 h4         1 GO4       0.158000
     44 H081        39.1430   -13.9960   -34.3760 h1         1 GO4       0.074700
     45 H092        40.7120   -13.2920   -32.6010 hc         1 GO4       0.045033
     46 H093        41.1840   -14.8540   -33.2730 hc         1 GO4       0.045033
     47 H091        42.0660   -13.3860   -33.7270 hc         1 GO4       0.045033
     48 H111        38.2050   -11.9540   -33.6200 ha         1 GO4       0.149000
     49 H141        39.4970    -8.2580   -35.3520 ha         1 GO4       0.149000
     50 H161        41.5970   -11.8920   -36.2460 ha         1 GO4       0.131000
     51 H191        41.1030   -17.4850   -41.7970 ha         1 GO4       0.136000
     52 H231        37.0510   -16.1840   -43.3050 ha         1 GO4       0.168000
     53 H301        29.8660   -16.2360   -46.0210 hc         1 GO4       0.086700
     54 H311        29.6420   -17.3880   -48.1990 hc         1 GO4       0.082700
     55 H312        31.4500   -17.3480   -48.4360 hc         1 GO4       0.082700
     56 H321        31.4220   -14.8450   -48.3040 hc         1 GO4       0.082700
     57 H322        29.6150   -14.8690   -48.0680 hc         1 GO4       0.082700
     58 H351        33.4460   -16.6350   -39.9510 h4         1 GO4       0.180000
     59 H361        35.8080   -16.6300   -39.1950 ha         1 GO4       0.160000
     60 H371        37.6360   -15.2920   -38.9540 ha         1 GO4       0.163000
     61 H071        41.5470   -14.6360   -35.7880 hn         1 GO4       0.309500
     62 H271        31.1030   -16.3170   -44.2490 hn         1 GO4       0.334500
@<TRIPOS>BOND
     1     1    14 1   
     2     1    16 ar  
     3     1    19 ar  
     4     2    18 ar  
     5     2    19 ar  
     6     2    38 1   
     7     3    12 1   
     8     3    20 ar  
     9     3    28 ar  
    10     4     5 ar  
    11     4    21 ar  
    12     4    39 1   
    13     5     6 1   
    14     5    28 ar  
    15     6    22 2   
    16     6    27 1   
    17     7    22 1   
    18     7    32 2   
    19     7    35 1   
    20     8    32 1   
    21     8    33 1   
    22     8    34 2   
    23     9    23 1   
    24     9    33 1   
    25     9    37 2   
    26    10    30 1   
    27    10    40 1   
    28    10    41 1   
    29    10    42 1   
    30    11    12 2   
    31    11    30 1   
    32    11    43 1   
    33    12    13 1   
    34    13    31 1   
    35    13    36 2   
    36    14    15 1   
    37    14    31 1   
    38    14    44 1   
    39    15    45 1   
    40    15    46 1   
    41    15    47 1   
    42    16    17 ar  
    43    16    48 1   
    44    17    18 ar  
    45    17    29 1   
    46    18    49 1   
    47    19    50 1   
    48    20    21 ar  
    49    20    30 1   
    50    21    51 1   
    51    22    52 1   
    52    23    24 1   
    53    23    25 1   
    54    23    53 1   
    55    24    25 1   
    56    24    54 1   
    57    24    55 1   
    58    25    56 1   
    59    25    57 1   
    60    26    27 2   
    61    26    35 1   
    62    26    58 1   
    63    27    59 1   
    64    28    60 1   
    65    31    61 1   
    66    33    62 1   
    67    34    35 1   
@<TRIPOS>SUBSTRUCTURE
     1 GO4         1 TEMP              0 ****  ****    0 ROOT
