@<TRIPOS>MOLECULE
GO5
   39    41     1     0     0
SMALL
abcg2


@<TRIPOS>ATOM
      1 C4           4.0550    -1.3200    -0.9430 c6         1 GO5      -0.069400
      2 C5           2.7360     1.4560     0.8930 c6         1 GO5      -0.219400
      3 C6           3.4210     1.7630    -0.4110 c          1 GO5       0.584100
      4 C7           2.7500    -0.5660    -1.1900 c6         1 GO5       0.202000
      5 C8           2.9860     0.9100    -1.5720 c6         1 GO5      -0.219400
      6 N            1.8950    -0.7000    -0.0210 n3         1 GO5      -0.740600
      7 C1           2.5000    -0.0510     1.1320 c6         1 GO5       0.202000
      8 C2           3.7870    -0.7920     1.4970 c6         1 GO5      -0.069400
      9 C3           4.7630    -0.8550     0.3270 c6         1 GO5      -0.077400
     10 O            4.2190     2.6700    -0.5290 o          1 GO5      -0.525100
     11 CA           0.5010    -0.3730    -0.2430 c3         1 GO5       0.182800
     12 CB          -0.4220    -1.1190     0.7240 c3         1 GO5      -0.034100
     13 CG          -1.8610    -0.7600     0.4840 ca         1 GO5      -0.080300
     14 CD1         -2.3960     0.4170     1.0040 ca         1 GO5      -0.100000
     15 CE1         -3.7090     0.7860     0.7550 ca         1 GO5      -0.101500
     16 CZ          -4.5020    -0.0380    -0.0280 ca         1 GO5       0.119000
     17 CL1         -6.1490     0.4090    -0.3430 cl         1 GO5      -0.205000
     18 CE2         -4.0010    -1.2160    -0.5590 ca         1 GO5      -0.101500
     19 CD2         -2.6830    -1.5650    -0.3000 ca         1 GO5      -0.100000
     20 H1           3.8170    -2.3830    -0.8540 hc         1 GO5       0.049200
     21 H2           4.7120    -1.2130    -1.8100 hc         1 GO5       0.049200
     22 H3           3.2860     1.9070     1.7220 hc         1 GO5       0.069700
     23 H4           1.7660     1.9660     0.8550 hc         1 GO5       0.069700
     24 H5           2.2410    -1.0440    -2.0310 h1         1 GO5       0.058700
     25 H6           2.0360     1.3320    -1.9260 hc         1 GO5       0.069700
     26 H7           3.6970     1.0020    -2.3960 hc         1 GO5       0.069700
     27 H9           1.8150    -0.1410     1.9780 h1         1 GO5       0.058700
     28 H10          4.2540    -0.3200     2.3650 hc         1 GO5       0.049200
     29 H11          3.5120    -1.8070     1.7950 hc         1 GO5       0.049200
     30 H12          5.5830    -1.5360     0.5640 hc         1 GO5       0.044200
     31 H13          5.2370     0.1180     0.1700 hc         1 GO5       0.044200
     32 H14          0.2920     0.7070    -0.1810 h1         1 GO5       0.034200
     33 H15          0.2410    -0.6730    -1.2610 h1         1 GO5       0.034200
     34 H16         -0.2720    -2.1920     0.5950 hc         1 GO5       0.056700
     35 H17         -0.1560    -0.8810     1.7570 hc         1 GO5       0.056700
     36 H18         -1.7780     1.0610     1.6200 ha         1 GO5       0.116500
     37 H19         -4.1070     1.7030     1.1690 ha         1 GO5       0.129500
     38 H20         -4.6260    -1.8560    -1.1670 ha         1 GO5       0.129500
     39 H21         -2.2960    -2.4870    -0.7150 ha         1 GO5       0.116500
@<TRIPOS>BOND
     1     1     4 1   
     2     1     9 1   
     3     1    20 1   
     4     1    21 1   
     5     2     3 1   
     6     2     7 1   
     7     2    22 1   
     8     2    23 1   
     9     3     5 1   
    10     3    10 2   
    11     4     5 1   
    12     4     6 1   
    13     4    24 1   
    14     5    25 1   
    15     5    26 1   
    16     6     7 1   
    17     6    11 1   
    18     7     8 1   
    19     7    27 1   
    20     8     9 1   
    21     8    28 1   
    22     8    29 1   
    23     9    30 1   
    24     9    31 1   
    25    11    12 1   
    26    11    32 1   
    27    11    33 1   
    28    12    13 1   
    29    12    34 1   
    30    12    35 1   
    31    13    14 ar  
    32    13    19 ar  
    33    14    15 ar  
    34    14    36 1   
    35    15    16 ar  
    36    15    37 1   
    37    16    17 1   
    38    16    18 ar  
    39    18    19 ar  
    40    18    38 1   
    41    19    39 1   
@<TRIPOS>SUBSTRUCTURE
     1 GO5         1 TEMP              0 ****  ****    0 ROOT
