@<TRIPOS>MOLECULE
GO5
   39    41     1     0     0
SMALL
No Charge or Current Charge


@<TRIPOS>ATOM
      1 C4           4.1110    -1.2540    -1.1170 c6         1 GO5      -0.069400
      2 C5           2.7600     1.3220     1.0970 c6         1 GO5      -0.219400
      3 C6           3.3980     1.7680    -0.2190 c          1 GO5       0.584100
      4 C7           2.7620    -0.4870    -1.2560 c6         1 GO5       0.202000
      5 C8           2.9630     1.0310    -1.4870 c6         1 GO5      -0.219400
      6 N            1.9170    -0.7320    -0.0560 n3         1 GO5      -0.740600
      7 C1           2.5760    -0.2130     1.1780 c6         1 GO5       0.202000
      8 C2           3.9200    -0.9660     1.4130 c6         1 GO5      -0.069400
      9 C3           4.8740    -0.9210     0.1910 c6         1 GO5      -0.077400
     10 O            4.2750     2.6230    -0.2470 o          1 GO5      -0.525100
     11 CA           0.4840    -0.3600    -0.2400 c3         1 GO5       0.182800
     12 CB          -0.4680    -0.8670     0.8650 c3         1 GO5      -0.034100
     13 CG          -1.9290    -0.6130     0.5160 ca         1 GO5      -0.080300
     14 CD1         -2.5050     0.6490     0.7590 ca         1 GO5      -0.100000
     15 CE1         -3.8520     0.8880     0.4320 ca         1 GO5      -0.101500
     16 CZ          -4.6270    -0.1350    -0.1400 ca         1 GO5       0.119000
     17 Cl1         -6.3110     0.1640    -0.5500 cl         1 GO5      -0.205000
     18 CE2         -4.0580    -1.3950    -0.3860 ca         1 GO5      -0.101500
     19 CD2         -2.7110    -1.6340    -0.0590 ca         1 GO5      -0.100000
     20 H1           3.9000    -2.3320    -1.1390 hc         1 GO5       0.049200
     21 H2           4.7510    -1.0540    -1.9870 hc         1 GO5       0.049200
     22 H3           3.3160     1.7300     1.9510 hc         1 GO5       0.069700
     23 H4           1.7540     1.7560     1.1130 hc         1 GO5       0.069700
     24 H5           2.2600    -0.8940    -2.1470 h1         1 GO5       0.058700
     25 H6           1.9790     1.4370    -1.7530 hc         1 GO5       0.069700
     26 H7           3.6500     1.2500    -2.3140 hc         1 GO5       0.069700
     27 H9           1.9540    -0.4260     2.0600 h1         1 GO5       0.058700
     28 H10          4.4280    -0.5660     2.3000 hc         1 GO5       0.049200
     29 H11          3.6920    -2.0160     1.6440 hc         1 GO5       0.049200
     30 H12          5.6920    -1.6390     0.3340 hc         1 GO5       0.044200
     31 H13          5.3570     0.0610     0.1150 hc         1 GO5       0.044200
     32 H14          0.3650     0.7280    -0.3240 h1         1 GO5       0.034200
     33 H15          0.1300    -0.7860    -1.1890 h1         1 GO5       0.034200
     34 H16         -0.2930    -1.9380     1.0200 hc         1 GO5       0.056700
     35 H17         -0.2300    -0.3720     1.8140 hc         1 GO5       0.056700
     36 H18         -1.9100     1.4460     1.2000 ha         1 GO5       0.116500
     37 H19         -4.2940     1.8630     0.6200 ha         1 GO5       0.129500
     38 H20         -4.6600    -2.1840    -0.8300 ha         1 GO5       0.129500
     39 H21         -2.2770    -2.6120    -0.2560 ha         1 GO5       0.116500
@<TRIPOS>BOND
     1     1     4 1   
     2     1     9 1   
     3     1    20 1   
     4     1    21 1   
     5     2     3 1   
     6     2     7 1   
     7     2    22 1   
     8     2    23 1   
     9     3     5 1   
    10     3    10 2   
    11     4     5 1   
    12     4     6 1   
    13     4    24 1   
    14     5    25 1   
    15     5    26 1   
    16     6     7 1   
    17     6    11 1   
    18     7     8 1   
    19     7    27 1   
    20     8     9 1   
    21     8    28 1   
    22     8    29 1   
    23     9    30 1   
    24     9    31 1   
    25    11    12 1   
    26    11    32 1   
    27    11    33 1   
    28    12    13 1   
    29    12    34 1   
    30    12    35 1   
    31    13    14 ar  
    32    13    19 ar  
    33    14    15 ar  
    34    14    36 1   
    35    15    16 ar  
    36    15    37 1   
    37    16    17 1   
    38    16    18 ar  
    39    18    19 ar  
    40    18    38 1   
    41    19    39 1   
@<TRIPOS>SUBSTRUCTURE
     1 GO5         1 TEMP              0 ****  ****    0 ROOT
