@<TRIPOS>MOLECULE
GO6
   52    53     1     0     0
SMALL
abcg2


@<TRIPOS>ATOM
      1 C10        -98.1240   124.9900   -21.7500 c3         1 GO6      -0.027100
      2 C13        -95.5350   121.6580   -23.2520 ca         1 GO6      -0.082800
      3 C15        -95.6940   121.2400   -24.5750 ca         1 GO6      -0.160000
      4 C17        -94.4800   121.1380   -22.5180 ca         1 GO6      -0.099500
      5 C20       -100.2480   126.9090   -19.2460 ca         1 GO6       0.078100
      6 C21        -93.6030   120.2210   -23.0880 ca         1 GO6      -0.146500
      7 C22        -99.3330   128.4710   -20.8260 ca         1 GO6      -0.146500
      8 C24       -100.1100   128.2280   -19.7060 ca         1 GO6       0.113100
      9 O01        -94.9550   125.9240   -23.6540 oh         1 GO6      -0.658000
     10 O02        -95.0200   124.5440   -19.6980 oh         1 GO6      -0.658000
     11 O04       -101.0220   126.7710   -18.1460 os         1 GO6      -0.344600
     12 O06       -100.7190   129.2600   -19.0830 oh         1 GO6      -0.525100
     13 C07        -95.8470   124.0500   -22.4530 c3         1 GO6      -0.056200
     14 C08        -96.6170   124.9280   -21.4480 c3         1 GO6      -0.056200
     15 C09        -96.4760   122.6590   -22.6360 c3         1 GO6      -0.027100
     16 C11        -95.6840   124.7260   -23.8080 c3         1 GO6       0.163600
     17 C12        -96.3960   124.4840   -20.0080 c3         1 GO6       0.163600
     18 C14        -98.8290   126.1170   -21.0430 ca         1 GO6      -0.082800
     19 C16        -99.6130   125.8730   -19.9140 ca         1 GO6      -0.160000
     20 C18        -98.6990   127.4250   -21.4870 ca         1 GO6      -0.099500
     21 C19        -94.8230   120.3280   -25.1570 ca         1 GO6       0.078100
     22 C23        -93.7610   119.8070   -24.4000 ca         1 GO6       0.113100
     23 C25        -95.9420   120.3880   -27.2440 c3         1 GO6       0.152400
     24 H102       -98.2710   125.1040   -22.8270 hc         1 GO6       0.045450
     25 H101       -98.5940   124.0400   -21.4800 hc         1 GO6       0.045450
     26 H151       -96.5180   121.6430   -25.1490 ha         1 GO6       0.113500
     27 H171       -94.3320   121.4450   -21.4900 ha         1 GO6       0.119500
     28 H211       -92.7850   119.8200   -22.4980 ha         1 GO6       0.122500
     29 H221       -99.2280   129.4880   -21.1830 ha         1 GO6       0.122500
     30 H262      -101.8180   125.5980   -16.7150 h1         1 GO6       0.039200
     31 H261      -101.6670   124.7960   -18.2880 h1         1 GO6       0.039200
     32 H263      -100.2270   125.0530   -17.2780 h1         1 GO6       0.039200
     33 H011       -94.8790   126.3430   -24.5160 ho         1 GO6       0.439500
     34 H021       -94.9040   124.2380   -18.7940 ho         1 GO6       0.439500
     35 H051       -92.2630   118.6250   -24.3960 ho         1 GO6       0.469000
     36 H061      -101.2000   128.9420   -18.3090 ho         1 GO6       0.469000
     37 H071       -94.8380   123.9060   -22.0520 hc         1 GO6       0.085700
     38 H081       -96.2230   125.9460   -21.5350 hc         1 GO6       0.085700
     39 H092       -97.3790   122.7360   -23.2480 hc         1 GO6       0.045450
     40 H091       -96.8030   122.2800   -21.6640 hc         1 GO6       0.045450
     41 H111       -96.6720   124.9130   -24.2540 h1         1 GO6       0.016950
     42 H112       -95.1660   124.0370   -24.4870 h1         1 GO6       0.016950
     43 H121       -96.9760   125.1360   -19.3430 h1         1 GO6       0.016950
     44 H122       -96.7930   123.4680   -19.8680 h1         1 GO6       0.016950
     45 H161       -99.7200   124.8530   -19.5650 ha         1 GO6       0.113500
     46 H181       -98.0960   127.6400   -22.3620 ha         1 GO6       0.119500
     47 H253       -95.8260   119.9180   -28.2180 h1         1 GO6       0.039200
     48 H251       -96.9330   120.1440   -26.8520 h1         1 GO6       0.039200
     49 H252       -95.8730   121.4730   -27.3680 h1         1 GO6       0.039200
     50 O03        -94.9090   119.8820   -26.4280 os         1 GO6      -0.344600
     51 O05        -92.9450   118.9190   -25.0100 oh         1 GO6      -0.525100
     52 C26       -101.1820   125.4830   -17.5890 c3         1 GO6       0.152400
@<TRIPOS>BOND
     1     1    14 1   
     2     1    18 1   
     3     1    24 1   
     4     1    25 1   
     5     2     3 ar  
     6     2     4 ar  
     7     2    15 1   
     8     3    21 ar  
     9     3    26 1   
    10     4     6 ar  
    11     4    27 1   
    12     5     8 ar  
    13     5    11 1   
    14     5    19 ar  
    15     6    22 ar  
    16     6    28 1   
    17     7     8 ar  
    18     7    20 ar  
    19     7    29 1   
    20     8    12 1   
    21     9    16 1   
    22     9    33 1   
    23    10    17 1   
    24    10    34 1   
    25    11    52 1   
    26    12    36 1   
    27    13    14 1   
    28    13    15 1   
    29    13    16 1   
    30    13    37 1   
    31    14    17 1   
    32    14    38 1   
    33    15    39 1   
    34    15    40 1   
    35    16    41 1   
    36    16    42 1   
    37    17    43 1   
    38    17    44 1   
    39    18    19 ar  
    40    18    20 ar  
    41    19    45 1   
    42    20    46 1   
    43    21    22 ar  
    44    21    50 1   
    45    22    51 1   
    46    23    47 1   
    47    23    48 1   
    48    23    49 1   
    49    23    50 1   
    50    30    52 1   
    51    31    52 1   
    52    32    52 1   
    53    35    51 1   
@<TRIPOS>SUBSTRUCTURE
     1 GO6         1 TEMP              0 ****  ****    0 ROOT
