@<TRIPOS>MOLECULE
GO6
   52    53     1     0     0
SMALL
No Charge or Current Charge


@<TRIPOS>ATOM
      1 C10        -98.0000   125.2070   -21.8410 c3         1 GO6      -0.027100
      2 C13        -95.3430   121.6370   -23.1710 ca         1 GO6      -0.082800
      3 C15        -95.7340   121.1490   -24.4330 ca         1 GO6      -0.160000
      4 C17        -94.1140   121.2300   -22.6200 ca         1 GO6      -0.099500
      5 C20        100.3350   126.9250   -19.3090 ca         1 GO6       0.078100
      6 C21        -93.2780   120.3460   -23.3230 ca         1 GO6      -0.146500
      7 C22        -99.0910   128.6400   -20.5220 ca         1 GO6      -0.146500
      8 C24       -100.0360   128.2830   -19.5490 ca         1 GO6       0.113100
      9 O01        -94.9940   125.9220   -23.8530 oh         1 GO6      -0.658000
     10 O02        -95.0490   124.5260   -19.4920 oh         1 GO6      -0.658000
     11 O04        101.2750   126.6230   -18.3380 os         1 GO6      -0.344600
     12 O06       -100.6700   129.2570   -18.8310 oh         1 GO6      -0.525100
     13 C07        -95.7080   124.0650   -22.3910 c3         1 GO6      -0.056200
     14 C08        -96.5120   125.0140   -21.4200 c3         1 GO6      -0.056200
     15 C09        -96.2420   122.6010   -22.4020 c3         1 GO6      -0.027100
     16 C11        -95.5830   124.6160   -23.8430 c3         1 GO6       0.163600
     17 C12        -96.4140   124.6030   -19.9200 c3         1 GO6       0.163600
     18 C14        -98.7210   126.2830   -21.0350 ca         1 GO6      -0.082800
     19 C16        -99.6730   125.9250   -20.0590 ca         1 GO6      -0.160000
     20 C18        -98.4350   127.6430   -21.2630 ca         1 GO6      -0.099500
     21 C19        -94.9000   120.2590   -25.1500 ca         1 GO6       0.078100
     22 C23        -93.6640   119.8590   -24.5840 ca         1 GO6       0.113100
     23 C25        -96.4910   120.1230   -27.0440 c3         1 GO6       0.152400
     24 H102       -98.0530   125.4790   -22.9010 hc         1 GO6       0.045450
     25 H101       -98.5320   124.2520   -21.7500 hc         1 GO6       0.045450
     26 H151       -96.6860   121.4740   -24.8440 ha         1 GO6       0.113500
     27 H171       -93.8050   121.6010   -21.6450 ha         1 GO6       0.119500
     28 H211       -92.3320   120.0440   -22.8800 ha         1 GO6       0.122500
     29 H221       -98.8660   129.6880   -20.7020 ha         1 GO6       0.122500
     30 H262      -102.4000   125.2580   -17.2250 h1         1 GO6       0.039200
     31 H261       102.0650   124.7630   -18.8970 h1         1 GO6       0.039200
     32 H263      -100.7730   124.7000   -17.6680 h1         1 GO6       0.039200
     33 H011       -94.9160   126.1930   -24.7950 ho         1 GO6       0.439500
     34 H021       -95.0620   124.2970   -18.5370 ho         1 GO6       0.439500
     35 H051       -92.0340   118.8430   -24.7020 ho         1 GO6       0.469000
     36 H061      -101.2830   128.7990   -18.2130 ho         1 GO6       0.469000
     37 H071       -94.6810   124.0200   -22.0100 hc         1 GO6       0.085700
     38 H081       -96.0400   126.0010   -21.4800 hc         1 GO6       0.085700
     39 H092       -97.2540   122.5850   -22.8230 hc         1 GO6       0.045450
     40 H091       -96.3390   122.2330   -21.3750 hc         1 GO6       0.045450
     41 H111       -96.5700   124.6380   -24.3210 h1         1 GO6       0.016950
     42 H112       -94.9560   123.9350   -24.4330 h1         1 GO6       0.016950
     43 H121       -96.9400   125.3480   -19.3090 h1         1 GO6       0.016950
     44 H122       -96.9200   123.6420   -19.7620 h1         1 GO6       0.016950
     45 H161       -99.8830   124.8730   -19.8920 ha         1 GO6       0.113500
     46 H181       -97.7030   127.9270   -22.0160 ha         1 GO6       0.119500
     47 H253       -96.5680   119.6200   -28.0160 h1         1 GO6       0.039200
     48 H251       -97.3530   119.8200   -26.4360 h1         1 GO6       0.039200
     49 H252       -96.5420   121.2050   -27.2160 h1         1 GO6       0.039200
     50 O03        -95.2570   119.7660   -26.3950 os         1 GO6      -0.344600
     51 O05        -92.8320   118.9980   -25.2510 oh         1 GO6      -0.525100
     52 C26       -101.6440   125.2690   -18.0190 c3         1 GO6       0.152400
@<TRIPOS>BOND
     1     1    14 1   
     2     1    18 1   
     3     1    24 1   
     4     1    25 1   
     5     2     3 ar  
     6     2     4 ar  
     7     2    15 1   
     8     3    21 ar  
     9     3    26 1   
    10     4     6 ar  
    11     4    27 1   
    12     5     8 ar  
    13     5    11 1   
    14     5    19 ar  
    15     6    22 ar  
    16     6    28 1   
    17     7     8 ar  
    18     7    20 ar  
    19     7    29 1   
    20     8    12 1   
    21     9    16 1   
    22     9    33 1   
    23    10    17 1   
    24    10    34 1   
    25    11    52 1   
    26    12    36 1   
    27    13    14 1   
    28    13    15 1   
    29    13    16 1   
    30    13    37 1   
    31    14    17 1   
    32    14    38 1   
    33    15    39 1   
    34    15    40 1   
    35    16    41 1   
    36    16    42 1   
    37    17    43 1   
    38    17    44 1   
    39    18    19 ar  
    40    18    20 ar  
    41    19    45 1   
    42    20    46 1   
    43    21    22 ar  
    44    21    50 1   
    45    22    51 1   
    46    23    47 1   
    47    23    48 1   
    48    23    49 1   
    49    23    50 1   
    50    30    52 1   
    51    31    52 1   
    52    32    52 1   
    53    35    51 1   
@<TRIPOS>SUBSTRUCTURE
     1 GO6         1 TEMP              0 ****  ****    0 ROOT
