@<TRIPOS>MOLECULE
GO7
   65    67     1     0     0
SMALL
No Charge or Current Charge


@<TRIPOS>ATOM
      1 C4         -20.0390     5.2970   -26.4980 ca         1 GO7       0.010000
      2 C20        -21.3840     5.7540   -14.6280 ca         1 GO7      -0.085000
      3 C16        -20.0550     7.6210   -15.4340 ca         1 GO7      -0.085000
      4 C5         -20.3960     3.9520   -26.6780 ca         1 GO7      -0.237000
      5 C19        -20.7600     5.8470   -13.3700 ca         1 GO7      -0.095000
      6 C17        -19.4310     7.7160   -14.1780 ca         1 GO7      -0.095000
      7 C1         -21.5760     3.9880   -24.5650 ca         1 GO7      -0.252000
      8 C3         -20.4400     6.0120   -25.3470 ca         1 GO7      -0.211600
      9 C15        -21.0340     6.6380   -15.6650 ca         1 GO7      -0.058300
     10 C18        -19.7750     6.8350   -13.1390 ca         1 GO7       0.094100
     11 C6         -21.1690     3.2950   -25.7080 ca         1 GO7       0.200100
     12 C2         -21.2150     5.3390   -24.3640 ca         1 GO7       0.209100
     13 C8         -20.0020     7.4590   -25.2350 c          1 GO7       0.621700
     14 C13        -21.0730     5.5150   -17.9900 c          1 GO7       0.609100
     15 C12        -20.8840     4.5990   -21.3600 c6         1 GO7      -0.127400
     16 C11        -21.3060     3.9890   -20.0030 c6         1 GO7       0.095000
     17 C10        -23.0040     5.7690   -19.6660 c6         1 GO7       0.081000
     18 C7         -22.0660     5.3630   -22.0220 c6         1 GO7       0.157300
     19 C9         -22.6620     6.4100   -21.0360 c6         1 GO7       0.169300
     20 C25        -23.3290    -0.2290   -26.7590 c3         1 GO7      -0.098100
     21 C24        -21.2190    -0.9650   -25.5370 c3         1 GO7      -0.098100
     22 C14        -21.7150     6.5320   -17.0260 c3         1 GO7      -0.108100
     23 C22        -21.1890     1.1710   -26.9680 c3         1 GO7       0.135600
     24 C23        -21.7830    -0.2630   -26.7970 c3         1 GO7       0.180000
     25 C21        -19.3550     6.1710   -10.7690 c3         1 GO7       0.502000
     26 N2         -21.8320     5.0400   -19.0900 n          1 GO7      -0.419800
     27 N1         -20.3110     8.1700   -24.1350 nt         1 GO7      -0.599000
     28 O2         -19.3680     8.0170   -26.1160 o          1 GO7      -0.635100
     29 O3         -19.9370     5.1000   -17.7950 o          1 GO7      -0.581100
     30 O6         -21.4070    -1.0520   -27.9340 oh         1 GO7      -0.661000
     31 O1         -21.6370     6.0240   -23.2370 os         1 GO7      -0.370100
     32 O4         -21.5560     1.9790   -25.8310 os         1 GO7      -0.352100
     33 O5         -19.1170     6.9920   -11.9310 os         1 GO7      -0.403100
     34 F4         -21.7150     7.4400   -20.8180 f          1 GO7      -0.261000
     35 F3         -20.6340     6.2580   -10.3360 f          1 GO7      -0.108000
     36 F2         -18.5660     6.5590    -9.7430 f          1 GO7      -0.108000
     37 F1         -19.0810     4.8660   -11.0020 f          1 GO7      -0.108000
     38 H1         -19.4410     5.7830   -27.2680 ha         1 GO7       0.147000
     39 H2         -22.1400     4.9900   -14.7950 ha         1 GO7       0.121000
     40 H3         -19.7740     8.3100   -16.2270 ha         1 GO7       0.121000
     41 H4         -20.0640     3.4420   -27.5780 ha         1 GO7       0.128000
     42 H5         -21.0570     5.1460   -12.5960 ha         1 GO7       0.136500
     43 H6         -18.6740     8.4780   -14.0080 ha         1 GO7       0.136500
     44 H7         -22.1850     3.4510   -23.8480 ha         1 GO7       0.130000
     45 H8         -20.5220     3.7990   -22.0180 hc         1 GO7       0.076200
     46 H9         -20.0380     5.2830   -21.2050 hc         1 GO7       0.076200
     47 H11        -22.0890     3.2340   -20.1670 h1         1 GO7       0.069200
     48 H10        -20.4520     3.4660   -19.5510 h1         1 GO7       0.069200
     49 H13        -23.3740     6.5540   -18.9960 h1         1 GO7       0.065700
     50 H12        -23.8300     5.0570   -19.8010 h1         1 GO7       0.065700
     51 H14        -22.8740     4.6590   -22.2610 h1         1 GO7       0.056700
     52 H15        -23.5580     6.8730   -21.4720 h1         1 GO7       0.076700
     53 H16        -23.6890     0.3270   -25.8850 hc         1 GO7       0.048533
     54 H18        -23.7310     0.2530   -27.6580 hc         1 GO7       0.048533
     55 H17        -23.7410    -1.2440   -26.7050 hc         1 GO7       0.048533
     56 H20        -21.5260    -0.4380   -24.6260 hc         1 GO7       0.048533
     57 H21        -21.5850    -1.9960   -25.4670 hc         1 GO7       0.048533
     58 H19        -20.1230    -0.9920   -25.5580 hc         1 GO7       0.048533
     59 H22        -21.7550     7.4960   -17.5460 hc         1 GO7       0.069200
     60 H23        -22.7790     6.2920   -16.9230 hc         1 GO7       0.069200
     61 H25        -20.0960     1.1040   -27.0500 h1         1 GO7       0.047200
     62 H24        -21.5780     1.6140   -27.8930 h1         1 GO7       0.047200
     63 H27        -20.0180     9.1320   -24.0640 hn         1 GO7       0.326500
     64 H26        -20.8370     7.7260   -23.3960 hn         1 GO7       0.326500
     65 H28        -20.4520    -1.2600   -27.8420 ho         1 GO7       0.441000
@<TRIPOS>BOND
     1     1     4 ar  
     2     1     8 ar  
     3     1    38 1   
     4     2     5 ar  
     5     2     9 ar  
     6     2    39 1   
     7     3     6 ar  
     8     3     9 ar  
     9     3    40 1   
    10     4    11 ar  
    11     4    41 1   
    12     5    10 ar  
    13     5    42 1   
    14     6    10 ar  
    15     6    43 1   
    16     7    11 ar  
    17     7    12 ar  
    18     7    44 1   
    19     8    12 ar  
    20     8    13 1   
    21     9    22 1   
    22    10    33 1   
    23    11    32 1   
    24    12    31 1   
    25    13    27 1   
    26    13    28 2   
    27    14    22 1   
    28    14    26 1   
    29    14    29 2   
    30    15    16 1   
    31    15    18 1   
    32    15    45 1   
    33    15    46 1   
    34    16    26 1   
    35    16    47 1   
    36    16    48 1   
    37    17    19 1   
    38    17    26 1   
    39    17    49 1   
    40    17    50 1   
    41    18    19 1   
    42    18    31 1   
    43    18    51 1   
    44    19    34 1   
    45    19    52 1   
    46    20    24 1   
    47    20    53 1   
    48    20    54 1   
    49    20    55 1   
    50    21    24 1   
    51    21    56 1   
    52    21    57 1   
    53    21    58 1   
    54    22    59 1   
    55    22    60 1   
    56    23    24 1   
    57    23    32 1   
    58    23    61 1   
    59    23    62 1   
    60    24    30 1   
    61    25    33 1   
    62    25    35 1   
    63    25    36 1   
    64    25    37 1   
    65    27    63 1   
    66    27    64 1   
    67    30    65 1   
@<TRIPOS>SUBSTRUCTURE
     1 GO7         1 TEMP              0 ****  ****    0 ROOT
