@<TRIPOS>MOLECULE
GO7
   65    67     1     0     0
SMALL
abcg2


@<TRIPOS>ATOM
      1 C4         -20.0120     5.2740   -26.3570 ca         1 GO7       0.010000
      2 C20        -21.9210     5.9840   -14.6100 ca         1 GO7      -0.085000
      3 C16        -20.2510     7.4430   -15.5310 ca         1 GO7      -0.085000
      4 C5         -20.3800     3.9600   -26.5910 ca         1 GO7      -0.237000
      5 C19        -21.3670     6.1330   -13.3440 ca         1 GO7      -0.095000
      6 C17        -19.6830     7.6020   -14.2730 ca         1 GO7      -0.095000
      7 C1         -21.4300     3.9310   -24.4120 ca         1 GO7      -0.252000
      8 C3         -20.3200     5.9560   -25.1790 ca         1 GO7      -0.211600
      9 C15        -21.3700     6.6320   -15.7160 ca         1 GO7      -0.058300
     10 C18        -20.2500     6.9370   -13.2000 ca         1 GO7       0.094100
     11 C6         -21.0990     3.2850   -25.6040 ca         1 GO7       0.200100
     12 C2         -21.0500     5.2480   -24.1950 ca         1 GO7       0.209100
     13 C8         -19.8370     7.3710   -25.0830 c          1 GO7       0.621700
     14 C13        -21.3640     5.2850   -17.8530 c          1 GO7       0.609100
     15 C12        -20.8190     4.4450   -21.1730 c6         1 GO7      -0.127400
     16 C11        -21.3880     3.8930   -19.8660 c6         1 GO7       0.095000
     17 C10        -22.9840     5.7340   -19.7030 c6         1 GO7       0.081000
     18 C7         -21.8940     5.2370   -21.9070 c6         1 GO7       0.157300
     19 C9         -22.4930     6.3130   -21.0200 c6         1 GO7       0.169300
     20 C25        -23.3420    -0.0750   -26.6940 c3         1 GO7      -0.098100
     21 C24        -21.2310    -0.8900   -25.5850 c3         1 GO7      -0.098100
     22 C14        -21.9740     6.4570   -17.0800 c3         1 GO7      -0.108100
     23 C22        -21.2230     1.2680   -26.8940 c3         1 GO7       0.135600
     24 C23        -21.8240    -0.1350   -26.7700 c3         1 GO7       0.180000
     25 C21        -18.7820     6.3020   -11.4650 c3         1 GO7       0.502000
     26 N2         -21.9300     4.9750   -19.0470 n          1 GO7      -0.419800
     27 N1         -20.0620     8.0560   -23.9450 nt         1 GO7      -0.599000
     28 O2         -19.2390     7.8960   -26.0310 o          1 GO7      -0.635100
     29 O3         -20.4120     4.6510   -17.4000 o          1 GO7      -0.581100
     30 O6         -21.5120    -0.8170   -28.0000 oh         1 GO7      -0.661000
     31 O1         -21.3800     5.9170   -23.0570 os         1 GO7      -0.370100
     32 O4         -21.5230     2.0060   -25.7060 os         1 GO7      -0.352100
     33 O5         -19.7190     7.1550   -11.9080 os         1 GO7      -0.403100
     34 F4         -21.5020     7.2820   -20.7480 f          1 GO7      -0.261000
     35 F3         -19.2370     5.0380   -11.3340 f          1 GO7      -0.108000
     36 F2         -18.3780     6.7210   -10.2630 f          1 GO7      -0.108000
     37 F1         -17.7020     6.2390   -12.2700 f          1 GO7      -0.108000
     38 H1         -19.4540     5.8120   -27.1090 ha         1 GO7       0.147000
     39 H2         -22.7960     5.3590   -14.7370 ha         1 GO7       0.121000
     40 H3         -19.8190     7.9600   -16.3790 ha         1 GO7       0.121000
     41 H4         -20.1080     3.4810   -27.5180 ha         1 GO7       0.128000
     42 H5         -21.7970     5.6400   -12.4830 ha         1 GO7       0.136500
     43 H6         -18.8200     8.2360   -14.1230 ha         1 GO7       0.136500
     44 H7         -21.9870     3.3740   -23.6750 ha         1 GO7       0.130000
     45 H8         -20.4630     3.6220   -21.7930 hc         1 GO7       0.076200
     46 H9         -19.9710     5.1000   -20.9630 hc         1 GO7       0.076200
     47 H11        -22.1950     3.1850   -20.0790 h1         1 GO7       0.069200
     48 H10        -20.6210     3.3810   -19.2960 h1         1 GO7       0.069200
     49 H13        -23.3420     6.5410   -19.0740 h1         1 GO7       0.065700
     50 H12        -23.8320     5.0750   -19.9140 h1         1 GO7       0.065700
     51 H14        -22.7200     4.5820   -22.1980 h1         1 GO7       0.056700
     52 H15        -23.3020     6.8320   -21.5360 h1         1 GO7       0.076700
     53 H16        -23.6580     0.4710   -25.8060 hc         1 GO7       0.048533
     54 H18        -23.7450     0.4290   -27.5750 hc         1 GO7       0.048533
     55 H17        -23.7530    -1.0840   -26.6480 hc         1 GO7       0.048533
     56 H20        -21.4590    -0.3830   -24.6470 hc         1 GO7       0.048533
     57 H21        -21.6420    -1.9000   -25.5450 hc         1 GO7       0.048533
     58 H19        -20.1440    -0.9580   -25.6820 hc         1 GO7       0.048533
     59 H22        -21.8330     7.3660   -17.6700 hc         1 GO7       0.069200
     60 H23        -23.0500     6.3010   -16.9910 hc         1 GO7       0.069200
     61 H25        -20.1390     1.1960   -27.0210 h1         1 GO7       0.047200
     62 H24        -21.6520     1.7710   -27.7650 h1         1 GO7       0.047200
     63 H27        -19.7200     9.0020   -23.8850 hn         1 GO7       0.326500
     64 H26        -20.5390     7.6380   -23.1630 hn         1 GO7       0.326500
     65 H28        -20.5620    -0.9910   -28.0200 ho         1 GO7       0.441000
@<TRIPOS>BOND
     1     1     4 ar  
     2     1     8 ar  
     3     1    38 1   
     4     2     5 ar  
     5     2     9 ar  
     6     2    39 1   
     7     3     6 ar  
     8     3     9 ar  
     9     3    40 1   
    10     4    11 ar  
    11     4    41 1   
    12     5    10 ar  
    13     5    42 1   
    14     6    10 ar  
    15     6    43 1   
    16     7    11 ar  
    17     7    12 ar  
    18     7    44 1   
    19     8    12 ar  
    20     8    13 1   
    21     9    22 1   
    22    10    33 1   
    23    11    32 1   
    24    12    31 1   
    25    13    27 1   
    26    13    28 2   
    27    14    22 1   
    28    14    26 1   
    29    14    29 2   
    30    15    16 1   
    31    15    18 1   
    32    15    45 1   
    33    15    46 1   
    34    16    26 1   
    35    16    47 1   
    36    16    48 1   
    37    17    19 1   
    38    17    26 1   
    39    17    49 1   
    40    17    50 1   
    41    18    19 1   
    42    18    31 1   
    43    18    51 1   
    44    19    34 1   
    45    19    52 1   
    46    20    24 1   
    47    20    53 1   
    48    20    54 1   
    49    20    55 1   
    50    21    24 1   
    51    21    56 1   
    52    21    57 1   
    53    21    58 1   
    54    22    59 1   
    55    22    60 1   
    56    23    24 1   
    57    23    32 1   
    58    23    61 1   
    59    23    62 1   
    60    24    30 1   
    61    25    33 1   
    62    25    35 1   
    63    25    36 1   
    64    25    37 1   
    65    27    63 1   
    66    27    64 1   
    67    30    65 1   
@<TRIPOS>SUBSTRUCTURE
     1 GO7         1 TEMP              0 ****  ****    0 ROOT
