@<TRIPOS>MOLECULE
GO8
   25    26     1     0     0
SMALL
bcc


@<TRIPOS>ATOM
      1 C4           4.6370    -0.1370    -0.5510 c3         1 GO8      -0.089100
      2 C5          -1.5490     0.4610    -0.0210 ca         1 GO8      -0.391800
      3 C6          -1.0900    -0.8320    -0.2470 ca         1 GO8       0.596300
      4 C7          -3.1780    -1.5630    -0.3590 ca         1 GO8       0.678900
      5 C8          -2.9280     0.6910     0.0270 ca         1 GO8       0.744200
      6 N1          -0.4160     1.2300     0.1000 na         1 GO8      -0.232300
      7 N2          -1.9010    -1.8820    -0.4200 nb         1 GO8      -0.686000
      8 C3           3.2290    -1.2930     1.2010 c3         1 GO8      -0.089100
      9 N3          -3.7240    -0.3660    -0.1490 nb         1 GO8      -0.804000
     10 C1           0.6330     0.3890    -0.0600 cc         1 GO8       0.454700
     11 S1           2.2560     1.0040    -0.0100 ss         1 GO8      -0.228300
     12 C2           3.2360    -0.5430    -0.1180 c3         1 GO8       0.052400
     13 N5           0.2730    -0.8550    -0.2680 nd         1 GO8      -0.664700
     14 H1           5.2590    -1.0290    -0.6260 hc         1 GO8       0.048533
     15 H2           4.6340     0.3540    -1.5240 hc         1 GO8       0.048533
     16 H3           5.1040     0.5330     0.1720 hc         1 GO8       0.048533
     17 H4          -3.8850    -2.3750    -0.4960 h5         1 GO8       0.048100
     18 H5          -0.3610     2.2230     0.2640 hn         1 GO8       0.313700
     19 H6           3.6800    -0.6960     1.9940 hc         1 GO8       0.048533
     20 H7           2.2190    -1.5660     1.5020 hc         1 GO8       0.048533
     21 H8           3.8080    -2.2130     1.1000 hc         1 GO8       0.048533
     22 H9           2.7690    -1.1460    -0.8970 h1         1 GO8       0.098700
     23 H10         -2.9400     2.6880     0.5070 hn         1 GO8       0.438300
     24 H11         -4.4800     1.9580     0.3370 hn         1 GO8       0.438300
     25 N4          -3.4840     1.8980     0.2100 nv         1 GO8      -0.971500
@<TRIPOS>BOND
     1     1    12 1   
     2     1    14 1   
     3     1    15 1   
     4     1    16 1   
     5     2     3 ar  
     6     2     5 ar  
     7     2     6 1   
     8     3     7 ar  
     9     3    13 1   
    10     4     7 ar  
    11     4     9 ar  
    12     4    17 1   
    13     5     9 ar  
    14     5    25 1   
    15     6    10 1   
    16     6    18 1   
    17     8    12 1   
    18     8    19 1   
    19     8    20 1   
    20     8    21 1   
    21    10    11 1   
    22    10    13 2   
    23    11    12 1   
    24    12    22 1   
    25    23    25 1   
    26    24    25 1   
@<TRIPOS>SUBSTRUCTURE
     1 GO8         1 TEMP              0 ****  ****    0 ROOT
