@<TRIPOS>MOLECULE
GO8
   25    26     1     0     0
SMALL
No Charge or Current Charge


@<TRIPOS>ATOM
      1 C4           4.7170    -0.1650    -0.5600 c3         1 GO8      -0.089100
      2 C5          -1.5740     0.4050    -0.0690 ca         1 GO8      -0.261200
      3 C6          -1.1340    -0.8710    -0.3360 ca         1 GO8       0.268000
      4 C7          -3.3220    -1.5460    -0.4250 ca         1 GO8       0.152900
      5 C8          -2.9430     0.6690     0.0150 ca         1 GO8       0.415900
      6 N1          -0.4720     1.2100     0.0610 na         1 GO8      -0.282600
      7 N2          -2.0100    -1.8780    -0.5210 nb         1 GO8      -0.160000
      8 C3           3.2660    -1.2130     1.2670 c3         1 GO8      -0.089100
      9 N3          -3.8350    -0.3170    -0.1650 nb         1 GO8      -0.278000
     10 C1           0.6050     0.3680    -0.1200 cc         1 GO8       0.454700
     11 S1           2.2470     0.9940    -0.1000 ss         1 GO8      -0.276200
     12 C2           3.2870    -0.5380    -0.1220 c3         1 GO8       0.100300
     13 N5           0.2620    -0.9020    -0.3780 nd         1 GO8      -0.664700
     14 H1           5.3510    -1.0590    -0.6090 hc         1 GO8       0.048533
     15 H2           4.7050     0.2980    -1.5540 hc         1 GO8       0.048533
     16 H3           5.1700     0.5420     0.1440 hc         1 GO8       0.048533
     17 H4          -4.0380    -2.3520    -0.5730 h5         1 GO8       0.048100
     18 H5          -0.4310     2.2080     0.2230 hn         1 GO8       0.364000
     19 H6           3.6670    -0.5380     2.0330 hc         1 GO8       0.048533
     20 H7           2.2460    -1.4900     1.5550 hc         1 GO8       0.048533
     21 H8           3.8740    -2.1250     1.2600 hc         1 GO8       0.048533
     22 H9           2.8720    -1.2320    -0.8650 h1         1 GO8       0.098700
     23 H10         -2.8320     2.5940     0.7000 hn         1 GO8       0.493500
     24 H11         -4.4320     1.9720     0.5220 hn         1 GO8       0.493500
     25 N4          -3.4460     1.9000     0.2820 nv         1 GO8      -1.081900
@<TRIPOS>BOND
     1     1    12 1   
     2     1    14 1   
     3     1    15 1   
     4     1    16 1   
     5     2     3 ar  
     6     2     5 ar  
     7     2     6 1   
     8     3     7 ar  
     9     3    13 1   
    10     4     7 ar  
    11     4     9 ar  
    12     4    17 1   
    13     5     9 ar  
    14     5    25 1   
    15     6    10 1   
    16     6    18 1   
    17     8    12 1   
    18     8    19 1   
    19     8    20 1   
    20     8    21 1   
    21    10    11 1   
    22    10    13 2   
    23    11    12 1   
    24    12    22 1   
    25    23    25 1   
    26    24    25 1   
@<TRIPOS>SUBSTRUCTURE
     1 GO8         1 TEMP              0 ****  ****    0 ROOT
