@<TRIPOS>MOLECULE
GO9
   49    48     1     0     0
SMALL
No Charge or Current Charge


@<TRIPOS>ATOM
      1 C1          -9.3050    -4.4470    -2.7140 c3         1 GO9      -0.040000
      2 C15         -7.6050    -4.2420    -6.0810 c3         1 GO9       0.159100
      3 C17        -11.8650    -1.9360    -3.9510 c3         1 GO9       0.131600
      4 C19         -6.6790    -3.1040    -6.5730 c3         1 GO9       0.140600
      5 C2         -10.2530    -5.5230    -2.1000 c3         1 GO9       0.173600
      6 C20        -12.4920    -1.2450    -2.7010 c3         1 GO9       0.131600
      7 C25        -10.9350     0.6470    -2.5100 c3         1 GO9       0.157600
      8 C3          -8.9110    -4.9030    -4.1500 c3         1 GO9       0.170600
      9 C31         -9.9810     1.3220    -1.4880 c3         1 GO9       0.159600
     10 C5          -8.0260    -4.2910    -1.8380 c3         1 GO9       0.170600
     11 C6         -10.0230    -3.0660    -2.7780 c3         1 GO9       0.176600
     12 C7          -6.0730    -5.5500    -1.0580 c3         1 GO9       0.159100
     13 C8          -6.3230    -5.3630     0.4640 c3         1 GO9       0.140600
     14 O11         -7.3280    -5.5550    -1.7750 os         1 GO9      -0.460000
     15 O12         -8.0340    -3.9250    -4.7440 os         1 GO9      -0.460000
     16 O13        -10.6580    -5.1840    -0.7620 oh         1 GO9      -0.668000
     17 O14        -11.2100    -3.1760    -3.5960 os         1 GO9      -0.455000
     18 O21        -11.4980    -0.5440    -1.9150 os         1 GO9      -0.437000
     19 O22         -6.2150    -3.3640    -7.9100 oh         1 GO9      -0.723000
     20 O33        -10.7020     1.8700    -0.3670 oh         1 GO9      -0.710000
     21 O9          -5.1030    -5.5440     1.2050 oh         1 GO9      -0.723000
     22 H1          -8.4680    -4.3270    -6.7550 h1         1 GO9       0.045200
     23 H2          -7.0550    -5.1920    -6.0960 h1         1 GO9       0.045200
     24 H3         -11.1740    -1.2620    -4.4710 h1         1 GO9       0.040200
     25 H4         -12.6800    -2.1540    -4.6520 h1         1 GO9       0.040200
     26 H5          -5.8270    -3.0170    -5.8860 h1         1 GO9       0.027450
     27 H6          -7.2340    -2.1560    -6.5420 h1         1 GO9       0.027450
     28 H7         -11.1380    -5.6340    -2.7410 h1         1 GO9       0.033700
     29 H8          -9.7410    -6.4950    -2.0980 h1         1 GO9       0.033700
     30 H9         -13.2690    -0.5440    -3.0370 h1         1 GO9       0.051200
     31 H10        -12.9890    -2.0090    -2.0900 h1         1 GO9       0.051200
     32 H11        -10.3560     0.3990    -3.4080 h1         1 GO9       0.024700
     33 H12        -11.7240     1.3550    -2.7970 h1         1 GO9       0.024700
     34 H13         -9.8160    -5.0240    -4.7610 h1         1 GO9       0.034450
     35 H14         -8.4140    -5.8810    -4.1040 h1         1 GO9       0.034450
     36 H15         -9.2440     0.5820    -1.1470 h1         1 GO9       0.028700
     37 H16         -9.4290     2.1200    -2.0030 h1         1 GO9       0.028700
     38 H17         -7.3770    -3.5180    -2.2700 h1         1 GO9       0.034450
     39 H18         -8.3150    -3.9530    -0.8350 h1         1 GO9       0.034450
     40 H19         -9.3390    -2.3160    -3.1960 h1         1 GO9       0.031700
     41 H20        -10.2820    -2.7480    -1.7600 h1         1 GO9       0.031700
     42 H21         -5.5580    -6.5070    -1.2140 h1         1 GO9       0.045200
     43 H22         -5.4150    -4.7520    -1.4270 h1         1 GO9       0.045200
     44 H23         -6.7250    -4.3580     0.6480 h1         1 GO9       0.027450
     45 H24         -7.0750    -6.0930     0.7920 h1         1 GO9       0.027450
     46 H25        -11.2570    -5.9000    -0.4540 ho         1 GO9       0.446000
     47 H26         -5.6330    -2.6090    -8.1660 ho         1 GO9       0.505000
     48 H27        -10.0300     2.2240     0.2620 ho         1 GO9       0.499000
     49 H28         -5.3250    -5.4330     2.1600 ho         1 GO9       0.505000
@<TRIPOS>BOND
     1     1     5 1   
     2     1     8 1   
     3     1    10 1   
     4     1    11 1   
     5     2     4 1   
     6     2    15 1   
     7     2    22 1   
     8     2    23 1   
     9     3     6 1   
    10     3    17 1   
    11     3    24 1   
    12     3    25 1   
    13     4    19 1   
    14     4    26 1   
    15     4    27 1   
    16     5    16 1   
    17     5    28 1   
    18     5    29 1   
    19     6    18 1   
    20     6    30 1   
    21     6    31 1   
    22     7     9 1   
    23     7    18 1   
    24     7    32 1   
    25     7    33 1   
    26     8    15 1   
    27     8    34 1   
    28     8    35 1   
    29     9    20 1   
    30     9    36 1   
    31     9    37 1   
    32    10    14 1   
    33    10    38 1   
    34    10    39 1   
    35    11    17 1   
    36    11    40 1   
    37    11    41 1   
    38    12    13 1   
    39    12    14 1   
    40    12    42 1   
    41    12    43 1   
    42    13    21 1   
    43    13    44 1   
    44    13    45 1   
    45    16    46 1   
    46    19    47 1   
    47    20    48 1   
    48    21    49 1   
@<TRIPOS>SUBSTRUCTURE
     1 GO9         1 TEMP              0 ****  ****    0 ROOT
