@<TRIPOS>MOLECULE
GO9
   49    48     1     0     0
SMALL
abcg2


@<TRIPOS>ATOM
      1 C1          -8.9740    -3.8010    -2.8260 c3         1 GO9      -0.040000
      2 C15         -7.9660    -5.1470    -6.1040 c3         1 GO9       0.159100
      3 C17        -10.8490    -0.9820    -4.3040 c3         1 GO9       0.131600
      4 C19         -6.9740    -4.5410    -7.0770 c3         1 GO9       0.140600
      5 C2         -10.0900    -4.2790    -1.8900 c3         1 GO9       0.173600
      6 C20        -12.1640    -0.7870    -3.5710 c3         1 GO9       0.131600
      7 C25        -11.5010     0.1540    -1.5030 c3         1 GO9       0.157600
      8 C3          -8.9770    -4.7440    -4.0320 c3         1 GO9       0.170600
      9 C31        -11.4680    -0.1270    -0.0210 c3         1 GO9       0.159600
     10 C5          -7.6120    -3.8350    -2.1270 c3         1 GO9       0.170600
     11 C6          -9.2090    -2.3500    -3.2560 c3         1 GO9       0.176600
     12 C7          -6.0700    -5.3390    -1.1430 c3         1 GO9       0.159100
     13 C8          -5.7810    -4.6570     0.1880 c3         1 GO9       0.140600
     14 O11         -7.3790    -5.1200    -1.6030 os         1 GO9      -0.460000
     15 O12         -8.0540    -4.3000    -4.9900 os         1 GO9      -0.460000
     16 O13        -10.0170    -3.5860    -0.6650 oh         1 GO9      -0.668000
     17 O14        -10.3340    -2.2770    -4.0950 os         1 GO9      -0.455000
     18 O21        -12.0760    -0.9390    -2.1760 os         1 GO9      -0.437000
     19 O22         -6.8800    -5.4100    -8.1830 oh         1 GO9      -0.723000
     20 O33        -12.7830    -0.2060     0.4790 oh         1 GO9      -0.710000
     21 O9          -4.5040    -5.0890     0.6010 oh         1 GO9      -0.723000
     22 H1          -8.9440    -5.2610    -6.5920 h1         1 GO9       0.045200
     23 H2          -7.6350    -6.1530    -5.8080 h1         1 GO9       0.045200
     24 H3         -10.1190    -0.2110    -4.0290 h1         1 GO9       0.040200
     25 H4         -11.0450    -0.8500    -5.3740 h1         1 GO9       0.040200
     26 H5          -6.0070    -4.4120    -6.5740 h1         1 GO9       0.027450
     27 H6          -7.3220    -3.5420    -7.3700 h1         1 GO9       0.027450
     28 H7         -11.0560    -4.1160    -2.3820 h1         1 GO9       0.033700
     29 H8          -9.9940    -5.3620    -1.7360 h1         1 GO9       0.033700
     30 H9         -12.5730     0.1960    -3.8420 h1         1 GO9       0.051200
     31 H10        -12.8770    -1.5390    -3.9170 h1         1 GO9       0.051200
     32 H11        -10.4680     0.3380    -1.8250 h1         1 GO9       0.024700
     33 H12        -12.0660     1.0760    -1.7040 h1         1 GO9       0.024700
     34 H13         -9.9860    -4.7960    -4.4650 h1         1 GO9       0.034450
     35 H14         -8.7290    -5.7610    -3.6990 h1         1 GO9       0.034450
     36 H15        -10.9080    -1.0540     0.1500 h1         1 GO9       0.028700
     37 H16        -10.8980     0.6830     0.4530 h1         1 GO9       0.028700
     38 H17         -6.8260    -3.5710    -2.8480 h1         1 GO9       0.034450
     39 H18         -7.5840    -3.0720    -1.3390 h1         1 GO9       0.034450
     40 H19         -8.3190    -1.9670    -3.7730 h1         1 GO9       0.031700
     41 H20         -9.3360    -1.7310    -2.3600 h1         1 GO9       0.031700
     42 H21         -5.9620    -6.4200    -1.0160 h1         1 GO9       0.045200
     43 H22         -5.3310    -5.0190    -1.8910 h1         1 GO9       0.045200
     44 H23         -5.8170    -3.5660     0.0760 h1         1 GO9       0.027450
     45 H24         -6.5630    -4.9340     0.9070 h1         1 GO9       0.027450
     46 H25        -10.7820    -3.8300    -0.1370 ho         1 GO9       0.446000
     47 H26         -6.2820    -5.0160    -8.8240 ho         1 GO9       0.505000
     48 H27        -12.7340    -0.4350     1.4110 ho         1 GO9       0.499000
     49 H28         -4.2820    -4.6370     1.4190 ho         1 GO9       0.505000
@<TRIPOS>BOND
     1     1     5 1   
     2     1     8 1   
     3     1    10 1   
     4     1    11 1   
     5     2     4 1   
     6     2    15 1   
     7     2    22 1   
     8     2    23 1   
     9     3     6 1   
    10     3    17 1   
    11     3    24 1   
    12     3    25 1   
    13     4    19 1   
    14     4    26 1   
    15     4    27 1   
    16     5    16 1   
    17     5    28 1   
    18     5    29 1   
    19     6    18 1   
    20     6    30 1   
    21     6    31 1   
    22     7     9 1   
    23     7    18 1   
    24     7    32 1   
    25     7    33 1   
    26     8    15 1   
    27     8    34 1   
    28     8    35 1   
    29     9    20 1   
    30     9    36 1   
    31     9    37 1   
    32    10    14 1   
    33    10    38 1   
    34    10    39 1   
    35    11    17 1   
    36    11    40 1   
    37    11    41 1   
    38    12    13 1   
    39    12    14 1   
    40    12    42 1   
    41    12    43 1   
    42    13    21 1   
    43    13    44 1   
    44    13    45 1   
    45    16    46 1   
    46    19    47 1   
    47    20    48 1   
    48    21    49 1   
@<TRIPOS>SUBSTRUCTURE
     1 GO9         1 TEMP              0 ****  ****    0 ROOT
