@<TRIPOS>MOLECULE
GOA
    8     7     1     0     0
SMALL
bcc


@<TRIPOS>ATOM
      1 C1           0.5530     0.0550     0.0260 c          1 GOA       0.932600
      2 C2          -0.7500    -0.7570    -0.0130 c3         1 GOA      -0.014600
      3 O11          0.4710     1.2940     0.0700 o          1 GOA      -0.834800
      4 O12          1.5930    -0.6360     0.0130 o          1 GOA      -0.834800
      5 O2          -1.8830     0.0800    -0.0210 oh         1 GOA      -0.573800
      6 H22         -0.7190    -1.4060    -0.9000 h1         1 GOA      -0.009300
      7 H21         -0.7500    -1.4330     0.8540 h1         1 GOA      -0.009300
      8 H2          -2.6600    -0.4840    -0.0110 ho         1 GOA       0.342000
@<TRIPOS>BOND
     1     1     2 1   
     2     1     3 1   
     3     1     4 1   
     4     2     5 1   
     5     2     6 1   
     6     2     7 1   
     7     5     8 1   
@<TRIPOS>SUBSTRUCTURE
     1 GOA         1 TEMP              0 ****  ****    0 ROOT
