@<TRIPOS>MOLECULE
GOA
    8     7     1     0     0
SMALL
No Charge or Current Charge


@<TRIPOS>ATOM
      1 C1           0.5960     0.0480     0.0170 c          1 GOA       0.722000
      2 C2          -0.7730    -0.7150     0.1390 c3         1 GOA       0.008600
      3 O11          0.8450     0.9330     0.8270 o          1 GOA      -0.729500
      4 O12          1.3630    -0.2690    -0.8850 o          1 GOA      -0.729500
      5 O2          -1.8550    -0.1100    -0.6130 oh         1 GOA      -0.636000
      6 H22         -0.6210    -1.7480    -0.2010 h1         1 GOA      -0.009300
      7 H21         -1.0450    -0.7640     1.2020 h1         1 GOA      -0.009300
      8 H2          -2.6540    -0.6620    -0.4670 ho         1 GOA       0.381000
@<TRIPOS>BOND
     1     1     2 1   
     2     1     3 1   
     3     1     4 1   
     4     2     5 1   
     5     2     6 1   
     6     2     7 1   
     7     5     8 1   
@<TRIPOS>SUBSTRUCTURE
     1 GOA         1 TEMP              0 ****  ****    0 ROOT
