@<TRIPOS>MOLECULE
GOB
   59    61     1     0     0
SMALL
abcg2


@<TRIPOS>ATOM
      1 C1          23.8280   -26.8540   -15.4080 c3         1 GOB       0.155900
      2 O2          24.8560   -25.8620   -15.3170 os         1 GOB      -0.352100
      3 C3          25.3790   -25.3490   -16.4500 ca         1 GOB       0.167100
      4 C4          24.9780   -25.7260   -17.7250 ca         1 GOB      -0.282000
      5 C5          25.5700   -25.1490   -18.8490 ca         1 GOB       0.236100
      6 C6          26.5650   -24.1790   -18.6640 ca         1 GOB      -0.337500
      7 C7          26.9610   -23.8010   -17.3800 ca         1 GOB       0.001000
      8 C8          26.3870   -24.3760   -16.2620 ca         1 GOB      -0.070000
      9 N9          26.7190   -24.0610   -14.9360 ns         1 GOB      -0.150000
     10 C10         27.6530   -23.1850   -14.4710 c          1 GOB       0.594100
     11 O11         28.3560   -22.4950   -15.2070 o          1 GOB      -0.603100
     12 C12         27.7710   -23.1280   -12.9630 c3         1 GOB      -0.124400
     13 C13         27.5830   -21.7090   -12.4290 c3         1 GOB      -0.200400
     14 C14         27.7940   -21.5510   -10.9090 c          1 GOB       0.712000
     15 O15         28.1500   -22.5580   -10.2470 o          1 GOB      -0.738500
     16 O16         27.5910   -20.3960   -10.4500 o          1 GOB      -0.738500
     17 S17         27.3180   -23.3660   -20.0280 sy         1 GOB       1.230600
     18 O18         27.9250   -24.3040   -20.9440 o          1 GOB      -0.543000
     19 O19         28.1900   -22.3390   -19.4940 o          1 GOB      -0.543000
     20 N20         26.0300   -22.6920   -20.8260 nh         1 GOB      -0.824100
     21 C21         24.9570   -22.0960   -20.1030 ca         1 GOB       0.295000
     22 C22         23.6500   -22.3600   -20.5150 ca         1 GOB      -0.130000
     23 C23         22.5780   -21.8180   -19.8200 ca         1 GOB      -0.094500
     24 C24         22.7970   -21.0230   -18.6970 ca         1 GOB      -0.127000
     25 C25         24.1000   -20.7620   -18.2880 ca         1 GOB      -0.094500
     26 C26         25.1800   -21.2840   -18.9920 ca         1 GOB      -0.130000
     27 C27         26.0480   -22.6340   -22.2600 ca         1 GOB       0.233000
     28 C28         26.3910   -21.4400   -22.8890 ca         1 GOB      -0.049000
     29 C29         26.3860   -21.3450   -24.2710 ca         1 GOB      -0.179000
     30 C30         26.0470   -22.4540   -25.0610 ca         1 GOB       0.291000
     31 C31         25.7050   -23.6540   -24.4160 ca         1 GOB      -0.179000
     32 C32         25.7030   -23.7380   -23.0340 ca         1 GOB      -0.049000
     33 N33         26.1050   -22.3840   -26.4430 nv         1 GOB      -1.081000
     34 O34         25.2260   -25.4720   -20.1110 os         1 GOB      -0.349100
     35 C35         24.1130   -26.3430   -20.3260 c3         1 GOB       0.157900
     36 H1          23.5730   -27.1060   -14.3820 h1         1 GOB       0.043033
     37 H1A         22.9520   -26.4550   -15.9220 h1         1 GOB       0.043033
     38 H1B         24.1940   -27.7400   -15.9280 h1         1 GOB       0.043033
     39 H4          24.2090   -26.4700   -17.8460 ha         1 GOB       0.115000
     40 H7          27.7120   -23.0420   -17.2590 ha         1 GOB       0.188000
     41 HN9         26.1960   -24.5740   -14.2430 hn         1 GOB       0.166000
     42 H12         27.0630   -23.8070   -12.4890 hc         1 GOB       0.064200
     43 H12A        28.7730   -23.4810   -12.7090 hc         1 GOB       0.064200
     44 H13         28.2750   -21.0300   -12.9310 hc         1 GOB       0.035200
     45 H13A        26.5770   -21.3490   -12.6650 hc         1 GOB       0.035200
     46 H22         23.4810   -22.9940   -21.3750 ha         1 GOB       0.130500
     47 H23         21.5690   -22.0290   -20.1480 ha         1 GOB       0.114500
     48 H24         21.9600   -20.6090   -18.1500 ha         1 GOB       0.111000
     49 H25         24.2840   -20.1390   -17.4220 ha         1 GOB       0.114500
     50 H26         26.1900   -21.0620   -18.6800 ha         1 GOB       0.130500
     51 H28         26.6550   -20.5800   -22.2860 ha         1 GOB       0.128000
     52 H29         26.6500   -20.4100   -24.7520 ha         1 GOB       0.110500
     53 H31         25.4370   -24.5180   -25.0120 ha         1 GOB       0.110500
     54 H32         25.4390   -24.6640   -22.5440 ha         1 GOB       0.128000
     55 HN33        25.5560   -23.0670   -26.9430 hn         1 GOB       0.446500
     56 HN3A        26.0310   -21.4600   -26.8400 hn         1 GOB       0.446500
     57 H35         23.9970   -26.4060   -21.4040 h1         1 GOB       0.042033
     58 H35A        24.3090   -27.3360   -19.9180 h1         1 GOB       0.042033
     59 H35B        23.2080   -25.9280   -19.8790 h1         1 GOB       0.042033
@<TRIPOS>BOND
     1     1     2 1   
     2     1    36 1   
     3     1    37 1   
     4     1    38 1   
     5     2     3 1   
     6     3     4 ar  
     7     3     8 ar  
     8     4     5 ar  
     9     4    39 1   
    10     5     6 ar  
    11     5    34 1   
    12     6     7 ar  
    13     6    17 1   
    14     7     8 ar  
    15     7    40 1   
    16     8     9 1   
    17     9    10 1   
    18     9    41 1   
    19    10    11 2   
    20    10    12 1   
    21    12    13 1   
    22    12    42 1   
    23    12    43 1   
    24    13    14 1   
    25    13    44 1   
    26    13    45 1   
    27    14    15 1   
    28    14    16 1   
    29    17    18 2   
    30    17    19 2   
    31    17    20 1   
    32    20    21 1   
    33    20    27 1   
    34    21    22 ar  
    35    21    26 ar  
    36    22    23 ar  
    37    22    46 1   
    38    23    24 ar  
    39    23    47 1   
    40    24    25 ar  
    41    24    48 1   
    42    25    26 ar  
    43    25    49 1   
    44    26    50 1   
    45    27    28 ar  
    46    27    32 ar  
    47    28    29 ar  
    48    28    51 1   
    49    29    30 ar  
    50    29    52 1   
    51    30    31 ar  
    52    30    33 1   
    53    31    32 ar  
    54    31    53 1   
    55    32    54 1   
    56    33    55 1   
    57    33    56 1   
    58    34    35 1   
    59    35    57 1   
    60    35    58 1   
    61    35    59 1   
@<TRIPOS>SUBSTRUCTURE
     1 GOB         1 TEMP              0 ****  ****    0 ROOT
