@<TRIPOS>MOLECULE
GOB
   59    61     1     0     0
SMALL
No Charge or Current Charge


@<TRIPOS>ATOM
      1 C1          23.6160   -26.7280   -15.0440 c3         1 GOB       0.155900
      2 O2          24.6990   -25.7880   -15.1590 os         1 GOB      -0.352100
      3 C3          25.2530   -25.4300   -16.3760 ca         1 GOB       0.167100
      4 C4          24.7890   -25.9720   -17.5910 ca         1 GOB      -0.282000
      5 C5          25.3670   -25.5820   -18.8170 ca         1 GOB       0.236100
      6 C6          26.4210   -24.6500   -18.8160 ca         1 GOB      -0.337500
      7 C7          26.8850   -24.1070   -17.5990 ca         1 GOB       0.001000
      8 C8          26.3040   -24.4910   -16.3730 ca         1 GOB      -0.070000
      9 N9          26.7180   -23.9660   -15.1120 ns         1 GOB      -0.150000
     10 C10         27.7070   -23.0630   -14.7450 c          1 GOB       0.594100
     11 O11         28.4870   -22.5370   -15.5310 o          1 GOB      -0.603100
     12 C12         27.7840   -22.7910   -13.2340 c3         1 GOB      -0.124400
     13 C13         27.2310   -21.3860   -12.8600 c3         1 GOB      -0.200400
     14 C14         27.3250   -21.1580   -11.3420 c          1 GOB       0.712000
     15 O15         28.3560   -20.6800   -10.8950 o          1 GOB      -0.738500
     16 O16         26.3900   -21.5240   -10.6480 o          1 GOB      -0.738500
     17 S17         27.1550   -24.0820   -20.3620 sy         1 GOB       1.230600
     18 O18         27.3580   -25.2290   -21.2550 o          1 GOB      -0.543000
     19 O19         28.2540   -23.1550   -20.0690 o          1 GOB      -0.543000
     20 N20         25.8740   -23.1500   -21.0020 nh         1 GOB      -0.824100
     21 C21         25.0980   -22.4340   -20.0740 ca         1 GOB       0.295000
     22 C22         23.7150   -22.6810   -20.0210 ca         1 GOB      -0.130000
     23 C23         22.8980   -21.9990   -19.1020 ca         1 GOB      -0.094500
     24 C24         23.4630   -21.0520   -18.2320 ca         1 GOB      -0.127000
     25 C25         24.8410   -20.7830   -18.2870 ca         1 GOB      -0.094500
     26 C26         25.6540   -21.4680   -19.2080 ca         1 GOB      -0.130000
     27 C27         26.0210   -22.7100   -22.3340 ca         1 GOB       0.233000
     28 C28         26.1910   -21.3390   -22.6250 ca         1 GOB      -0.049000
     29 C29         26.3170   -20.8960   -23.9550 ca         1 GOB      -0.179000
     30 C30         26.2620   -21.8150   -25.0110 ca         1 GOB       0.291000
     31 C31         26.0760   -23.1760   -24.7390 ca         1 GOB      -0.179000
     32 C32         25.9510   -23.6210   -23.4090 ca         1 GOB      -0.049000
     33 N33         26.3820   -21.3840   -26.3020 nv         1 GOB      -1.081000
     34 O34         24.9060   -26.0820   -20.0180 os         1 GOB      -0.349100
     35 C35         23.7820   -26.9740   -20.1140 c3         1 GOB       0.157900
     36 H1          23.3370   -26.8590   -13.9910 h1         1 GOB       0.043033
     37 H1A         22.7310   -26.3710   -15.5870 h1         1 GOB       0.043033
     38 H1B         23.9050   -27.7080   -15.4440 h1         1 GOB       0.043033
     39 H4          23.9780   -26.6890   -17.5830 ha         1 GOB       0.115000
     40 H7          27.6880   -23.3760   -17.6200 ha         1 GOB       0.188000
     41 HN9         26.1730   -24.3180   -14.3350 hn         1 GOB       0.166000
     42 H12         27.2020   -23.5460   -12.6910 hc         1 GOB       0.064200
     43 H12A        28.8350   -22.8450   -12.9250 hc         1 GOB       0.064200
     44 H13         27.8590   -20.6610   -13.3920 hc         1 GOB       0.035200
     45 H13A        26.1820   -21.3800   -13.1810 hc         1 GOB       0.035200
     46 H22         23.2800   -23.4170   -20.6890 ha         1 GOB       0.130500
     47 H23         21.8310   -22.2050   -19.0640 ha         1 GOB       0.114500
     48 H24         22.8340   -20.5230   -17.5190 ha         1 GOB       0.111000
     49 H25         25.2790   -20.0440   -17.6190 ha         1 GOB       0.114500
     50 H26         26.7140   -21.2410   -19.2490 ha         1 GOB       0.130500
     51 H28         26.2370   -20.6140   -21.8180 ha         1 GOB       0.128000
     52 H29         26.4560   -19.8380   -24.1570 ha         1 GOB       0.110500
     53 H31         26.0210   -23.8940   -25.5520 ha         1 GOB       0.110500
     54 H32         25.7820   -24.6760   -23.2140 ha         1 GOB       0.128000
     55 HN33        26.2040   -22.0270   -27.0710 hn         1 GOB       0.446500
     56 HN3A        26.3780   -20.3860   -26.5090 hn         1 GOB       0.446500
     57 H35         23.5860   -27.2240   -21.1640 h1         1 GOB       0.042033
     58 H35A        23.9790   -27.9090   -19.5750 h1         1 GOB       0.042033
     59 H35B        22.8790   -26.5090   -19.7010 h1         1 GOB       0.042033
@<TRIPOS>BOND
     1     1     2 1   
     2     1    36 1   
     3     1    37 1   
     4     1    38 1   
     5     2     3 1   
     6     3     4 ar  
     7     3     8 ar  
     8     4     5 ar  
     9     4    39 1   
    10     5     6 ar  
    11     5    34 1   
    12     6     7 ar  
    13     6    17 1   
    14     7     8 ar  
    15     7    40 1   
    16     8     9 1   
    17     9    10 1   
    18     9    41 1   
    19    10    11 2   
    20    10    12 1   
    21    12    13 1   
    22    12    42 1   
    23    12    43 1   
    24    13    14 1   
    25    13    44 1   
    26    13    45 1   
    27    14    15 1   
    28    14    16 1   
    29    17    18 2   
    30    17    19 2   
    31    17    20 1   
    32    20    21 1   
    33    20    27 1   
    34    21    22 ar  
    35    21    26 ar  
    36    22    23 ar  
    37    22    46 1   
    38    23    24 ar  
    39    23    47 1   
    40    24    25 ar  
    41    24    48 1   
    42    25    26 ar  
    43    25    49 1   
    44    26    50 1   
    45    27    28 ar  
    46    27    32 ar  
    47    28    29 ar  
    48    28    51 1   
    49    29    30 ar  
    50    29    52 1   
    51    30    31 ar  
    52    30    33 1   
    53    31    32 ar  
    54    31    53 1   
    55    32    54 1   
    56    33    55 1   
    57    33    56 1   
    58    34    35 1   
    59    35    57 1   
    60    35    58 1   
    61    35    59 1   
@<TRIPOS>SUBSTRUCTURE
     1 GOB         1 TEMP              0 ****  ****    0 ROOT
