@<TRIPOS>MOLECULE
GOC
   56    60     1     0     0
SMALL
abcg2


@<TRIPOS>ATOM
      1 C14         12.7150    -3.3700    -9.7440 ca         1 GOC      -0.122500
      2 C11         13.0250    -4.4680    -7.2100 ca         1 GOC      -0.064000
      3 C10         12.7410    -3.1070    -7.3460 ca         1 GOC      -0.173600
      4 C12         13.1290    -5.2740    -8.3310 ca         1 GOC      -0.122500
      5 C13         12.9770    -4.7260    -9.6000 ca         1 GOC      -0.082000
      6 C03         10.2120     1.2280    -5.9770 ca         1 GOC      -0.135600
      7 C04          9.8060     0.1290    -6.7270 ca         1 GOC      -0.083000
      8 C05         10.6050    -1.0000    -6.7980 ca         1 GOC      -0.076500
      9 C06         11.4330     1.1880    -5.3050 ca         1 GOC      -0.083000
     10 C07         12.2270     0.0570    -5.3700 ca         1 GOC      -0.076500
     11 C08         11.8240    -1.0430    -6.1240 ca         1 GOC      -0.142600
     12 C09         12.6810    -2.2630    -6.1270 c          1 GOC       0.591300
     13 C15         12.5890    -2.5640    -8.6220 ca         1 GOC      -0.064000
     14 C18          8.7490     4.4000    -4.6810 cc         1 GOC       0.028600
     15 C19          7.5050     4.8570    -5.0360 cd         1 GOC      -0.205300
     16 C20          6.2850     4.3690    -5.7260 c5         1 GOC       0.186900
     17 C22          6.2130     6.9330    -4.7390 c5         1 GOC       0.058300
     18 C23          7.4650     6.1550    -4.5190 cd         1 GOC       0.242300
     19 C26         10.6500     5.3790    -3.4310 ca         1 GOC      -0.017200
     20 C27         11.7780     5.4410    -4.2500 ca         1 GOC      -0.049300
     21 C28         11.6690     5.5880    -5.7380 c3         1 GOC      -0.053800
     22 C29         13.0230     5.3670    -3.6330 ca         1 GOC      -0.117000
     23 C30         10.7650     5.2670    -2.0530 ca         1 GOC      -0.085000
     24 C31         12.0190     5.2080    -1.4670 ca         1 GOC      -0.115000
     25 C32         13.1680     5.2520    -2.2530 ca         1 GOC      -0.056300
     26 C33         14.5310     5.2090    -1.6280 c3         1 GOC      -0.051800
     27 N17          9.4080     3.1920    -4.8400 ns         1 GOC      -0.401100
     28 N24          8.5670     6.4940    -3.8900 nc         1 GOC      -0.469800
     29 N25          9.3550     5.4160    -4.0100 na         1 GOC       0.193000
     30 O01          8.6330     2.7300    -6.9150 o          1 GOC      -0.559100
     31 O16         13.3200    -2.5540    -5.1360 o          1 GOC      -0.512100
     32 S21          5.0320     5.6800    -5.3810 ss         1 GOC      -0.475000
     33 H1          12.6070    -2.9390   -10.7300 ha         1 GOC       0.119000
     34 H2          13.1510    -4.8960    -6.2250 ha         1 GOC       0.125500
     35 H3          13.3300    -6.3310    -8.2170 ha         1 GOC       0.119000
     36 H4          13.0660    -5.3560   -10.4750 ha         1 GOC       0.117000
     37 H5           8.8610     0.1490    -7.2530 ha         1 GOC       0.129500
     38 H6          10.2630    -1.8530    -7.3690 ha         1 GOC       0.132500
     39 H7          11.7930     2.0390    -4.7400 ha         1 GOC       0.129500
     40 H8          13.1740     0.0410    -4.8470 ha         1 GOC       0.132500
     41 H9          12.3980    -1.5060    -8.7490 ha         1 GOC       0.125500
     42 H10          5.9120     3.4240    -5.3310 h1         1 GOC       0.082200
     43 H11          6.4260     4.2570    -6.8000 h1         1 GOC       0.082200
     44 H12          6.3500     7.7340    -5.4650 h1         1 GOC       0.083700
     45 H13          5.8120     7.3630    -3.8220 h1         1 GOC       0.083700
     46 H14         11.3930     4.6470    -6.2190 hc         1 GOC       0.053367
     47 H15         10.9180     6.3260    -6.0190 hc         1 GOC       0.053367
     48 H16         12.6220     5.8980    -6.1650 hc         1 GOC       0.053367
     49 H17         13.9110     5.4100    -4.2540 ha         1 GOC       0.118000
     50 H18          9.8730     5.2200    -1.4420 ha         1 GOC       0.133000
     51 H19         12.1010     5.1210    -0.3910 ha         1 GOC       0.122000
     52 H20         14.9080     6.2190    -1.4530 hc         1 GOC       0.047367
     53 H21         14.5140     4.6970    -0.6670 hc         1 GOC       0.047367
     54 H22         15.2510     4.7030    -2.2710 hc         1 GOC       0.047367
     55 H23          9.9130     2.8310    -4.0430 hn         1 GOC       0.338500
     56 C02          9.3410     2.4400    -5.9710 c          1 GOC       0.622700
@<TRIPOS>BOND
     1     1     5 ar  
     2     1    13 ar  
     3     1    33 1   
     4     2     3 ar  
     5     2     4 ar  
     6     2    34 1   
     7     3    12 1   
     8     3    13 ar  
     9     4     5 ar  
    10     4    35 1   
    11     5    36 1   
    12     6     7 ar  
    13     6     9 ar  
    14     6    56 1   
    15     7     8 ar  
    16     7    37 1   
    17     8    11 ar  
    18     8    38 1   
    19     9    10 ar  
    20     9    39 1   
    21    10    11 ar  
    22    10    40 1   
    23    11    12 1   
    24    12    31 2   
    25    13    41 1   
    26    14    15 2   
    27    14    27 1   
    28    14    29 1   
    29    15    16 1   
    30    15    18 1   
    31    16    32 1   
    32    16    42 1   
    33    16    43 1   
    34    17    18 1   
    35    17    32 1   
    36    17    44 1   
    37    17    45 1   
    38    18    28 2   
    39    19    20 ar  
    40    19    23 ar  
    41    19    29 1   
    42    20    21 1   
    43    20    22 ar  
    44    21    46 1   
    45    21    47 1   
    46    21    48 1   
    47    22    25 ar  
    48    22    49 1   
    49    23    24 ar  
    50    23    50 1   
    51    24    25 ar  
    52    24    51 1   
    53    25    26 1   
    54    26    52 1   
    55    26    53 1   
    56    26    54 1   
    57    27    55 1   
    58    27    56 1   
    59    28    29 1   
    60    30    56 2   
@<TRIPOS>SUBSTRUCTURE
     1 GOC         1 TEMP              0 ****  ****    0 ROOT
