@<TRIPOS>MOLECULE
GOC
   56    60     1     0     0
SMALL
No Charge or Current Charge


@<TRIPOS>ATOM
      1 C14         12.6160    -3.4490    -9.7980 ca         1 GOC      -0.122500
      2 C11         13.1930    -4.5420    -7.2760 ca         1 GOC      -0.064000
      3 C10         12.8470    -3.1770    -7.3770 ca         1 GOC      -0.173600
      4 C12         13.2360    -5.3540    -8.4230 ca         1 GOC      -0.122500
      5 C13         12.9440    -4.8090    -9.6840 ca         1 GOC      -0.082000
      6 C03         10.0210     1.0260    -5.8630 ca         1 GOC      -0.135600
      7 C04          9.6890    -0.1390    -6.5920 ca         1 GOC      -0.083000
      8 C05         10.5860    -1.2160    -6.6860 ca         1 GOC      -0.076500
      9 C06         11.2840     1.0740    -5.2210 ca         1 GOC      -0.083000
     10 C07         12.1790    -0.0060    -5.3160 ca         1 GOC      -0.076500
     11 C08         11.8480    -1.1560    -6.0590 ca         1 GOC      -0.142600
     12 C09         12.8210    -2.3130    -6.1360 c          1 GOC       0.591300
     13 C15         12.5720    -2.6340    -8.6530 ca         1 GOC      -0.064000
     14 C18          8.7870     4.4830    -4.7600 cc         1 GOC       0.028600
     15 C19          7.5740     5.0340    -5.0830 cd         1 GOC      -0.205300
     16 C20          6.4500     4.4660    -5.8800 c5         1 GOC       0.186900
     17 C22          6.2250     7.0580    -4.7540 c5         1 GOC       0.058300
     18 C23          7.4830     6.2900    -4.5260 cd         1 GOC       0.242300
     19 C26         10.6030     5.4700    -3.4310 ca         1 GOC      -0.017200
     20 C27         11.7690     5.6590    -4.2120 ca         1 GOC      -0.049300
     21 C28         11.6860     5.9710    -5.7050 c3         1 GOC      -0.053800
     22 C29         13.0340     5.5590    -3.5980 ca         1 GOC      -0.117000
     23 C30         10.7210     5.1940    -2.0550 ca         1 GOC      -0.085000
     24 C31         11.9870     5.0990    -1.4550 ca         1 GOC      -0.115000
     25 C32         13.1490     5.2770    -2.2240 ca         1 GOC      -0.056300
     26 C33         14.5220     5.1760    -1.5760 c3         1 GOC      -0.051800
     27 N17          9.4070     3.2590    -5.0340 ns         1 GOC      -0.401100
     28 N24          8.5480     6.6540    -3.8390 nc         1 GOC      -0.469800
     29 N25          9.3320     5.5260    -4.0030 na         1 GOC       0.193000
     30 O01          7.9520     2.1090    -6.3810 o          1 GOC      -0.559100
     31 O16         13.5800    -2.5480    -5.2020 o          1 GOC      -0.512100
     32 S21          5.1590     5.8600    -5.7830 ss         1 GOC      -0.475000
     33 H1          12.4010    -3.0230   -10.7760 ha         1 GOC       0.119000
     34 H2          13.4230    -4.9800    -6.3060 ha         1 GOC       0.125500
     35 H3          13.4960    -6.4060    -8.3340 ha         1 GOC       0.119000
     36 H4          12.9790    -5.4380   -10.5710 ha         1 GOC       0.117000
     37 H5           8.7250    -0.2180    -7.0910 ha         1 GOC       0.129500
     38 H6          10.2850    -2.1040    -7.2380 ha         1 GOC       0.132500
     39 H7          11.6000     1.9390    -4.6430 ha         1 GOC       0.129500
     40 H8          13.1430     0.0590    -4.8130 ha         1 GOC       0.132500
     41 H9          12.3370    -1.5770    -8.7670 ha         1 GOC       0.125500
     42 H10          6.0650     3.5440    -5.4240 h1         1 GOC       0.082200
     43 H11          6.7520     4.2870    -6.9200 h1         1 GOC       0.082200
     44 H12          6.4380     7.9810    -5.3090 h1         1 GOC       0.083700
     45 H13          5.7460     7.3000    -3.7970 h1         1 GOC       0.083700
     46 H14         11.3560     5.0940    -6.2740 hc         1 GOC       0.053367
     47 H15         10.9780     6.7850    -5.9020 hc         1 GOC       0.053367
     48 H16         12.6560     6.2800    -6.1100 hc         1 GOC       0.053367
     49 H17         13.9350     5.7020    -4.1910 ha         1 GOC       0.118000
     50 H18          9.8280     5.0480    -1.4510 ha         1 GOC       0.133000
     51 H19         12.0630     4.8850    -0.3910 ha         1 GOC       0.122000
     52 H20         14.8670     6.1600    -1.2390 hc         1 GOC       0.047367
     53 H21         14.5060     4.5090    -0.7060 hc         1 GOC       0.047367
     54 H22         15.2660     4.7810    -2.2780 hc         1 GOC       0.047367
     55 H23         10.3190     3.1330    -4.6180 hn         1 GOC       0.338500
     56 C02          9.0200     2.1680    -5.7920 c          1 GOC       0.622700
@<TRIPOS>BOND
     1     1     5 ar  
     2     1    13 ar  
     3     1    33 1   
     4     2     3 ar  
     5     2     4 ar  
     6     2    34 1   
     7     3    12 1   
     8     3    13 ar  
     9     4     5 ar  
    10     4    35 1   
    11     5    36 1   
    12     6     7 ar  
    13     6     9 ar  
    14     6    56 1   
    15     7     8 ar  
    16     7    37 1   
    17     8    11 ar  
    18     8    38 1   
    19     9    10 ar  
    20     9    39 1   
    21    10    11 ar  
    22    10    40 1   
    23    11    12 1   
    24    12    31 2   
    25    13    41 1   
    26    14    15 2   
    27    14    27 1   
    28    14    29 1   
    29    15    16 1   
    30    15    18 1   
    31    16    32 1   
    32    16    42 1   
    33    16    43 1   
    34    17    18 1   
    35    17    32 1   
    36    17    44 1   
    37    17    45 1   
    38    18    28 2   
    39    19    20 ar  
    40    19    23 ar  
    41    19    29 1   
    42    20    21 1   
    43    20    22 ar  
    44    21    46 1   
    45    21    47 1   
    46    21    48 1   
    47    22    25 ar  
    48    22    49 1   
    49    23    24 ar  
    50    23    50 1   
    51    24    25 ar  
    52    24    51 1   
    53    25    26 1   
    54    26    52 1   
    55    26    53 1   
    56    26    54 1   
    57    27    55 1   
    58    27    56 1   
    59    28    29 1   
    60    30    56 2   
@<TRIPOS>SUBSTRUCTURE
     1 GOC         1 TEMP              0 ****  ****    0 ROOT
