@<TRIPOS>MOLECULE
GOD
   52    54     1     0     0
SMALL
No Charge or Current Charge


@<TRIPOS>ATOM
      1 C4          -6.4100    -0.3400    -0.2530 ca         1 GOD       0.397900
      2 C5          -4.1830     1.2690     0.0200 ca         1 GOD      -0.003900
      3 C8          -5.3520     1.3800     0.8130 ca         1 GOD       0.631900
      4 C15          1.6400     2.1160     1.3770 c          1 GOD       0.611100
      5 C20          3.7980    -1.8520     0.1030 ca         1 GOD      -0.096500
      6 C21          4.7830    -1.2970    -0.7460 ca         1 GOD       0.096100
      7 C22          5.0720     0.0740    -0.6550 ca         1 GOD      -0.096500
      8 C1          -5.3260    -0.5360    -1.1340 ca         1 GOD      -0.238600
      9 C2          -5.3680    -1.5940    -2.2010 c          1 GOD       0.623700
     10 C3          -4.1890     0.2950    -0.9990 ca         1 GOD      -0.057000
     11 N6          -6.4280     0.6090     0.7080 nb         1 GOD      -0.747000
     12 O7          -3.1130     2.1380     0.2200 os         1 GOD      -0.332100
     13 C9          -1.8480     1.4130     0.3290 c5         1 GOD       0.112300
     14 N10         -5.5190     2.2690     1.8040 nv         1 GOD      -1.056900
     15 C11         -0.7240     2.4630     0.5340 c5         1 GOD       0.102000
     16 C12         -1.7780     0.6020     1.6620 c5         1 GOD       0.147000
     17 N13          0.3010     1.6790     1.2620 n          1 GOD      -0.429800
     18 C14         -0.2460     0.4390     1.8720 c5         1 GOD       0.052000
     19 C16          2.6700     1.2320     2.1040 c3         1 GOD      -0.112100
     20 O17          1.9850     3.1700     0.8600 o          1 GOD      -0.572100
     21 C18          3.4100     0.3420     1.1100 ca         1 GOD      -0.059300
     22 C19          3.1190    -1.0330     1.0240 ca         1 GOD      -0.085000
     23 C23          4.3930     0.8900     0.2660 ca         1 GOD      -0.085000
     24 C25          5.3140    -3.4500    -1.8940 c3         1 GOD       0.515000
     25 F26          6.1430    -3.8910    -2.8660 f          1 GOD      -0.108667
     26 F27          5.5880    -4.1740    -0.7850 f          1 GOD      -0.108667
     27 F28          4.0540    -3.7490    -2.2880 f          1 GOD      -0.108667
     28 F29         -2.4050    -0.6380     1.5560 f          1 GOD      -0.097500
     29 F30         -2.3550     1.2910     2.7320 f          1 GOD      -0.097500
     30 O31         -4.4320    -1.7690    -2.9690 o          1 GOD      -0.610100
     31 N32         -6.5060    -2.3650    -2.2840 ns         1 GOD      -0.503900
     32 C33         -6.7060    -3.4360    -3.2630 c3         1 GOD       0.095300
     33 HC4         -7.3080    -0.9520    -0.3120 h4         1 GOD       0.017100
     34 HC20         3.5430    -2.9060     0.0690 ha         1 GOD       0.135500
     35 HC22         5.8290     0.5070    -1.3050 ha         1 GOD       0.135500
     36 HC3         -3.3490     0.1890    -1.6820 ha         1 GOD       0.148000
     37 HC9         -1.6430     0.7950    -0.5540 h1         1 GOD       0.082700
     38 H10B        -4.6730     2.6830     2.1780 hn         1 GOD       0.493000
     39 H10A        -6.2530     2.0470     2.4640 hn         1 GOD       0.493000
     40 H11B        -0.3510     2.8460    -0.4250 h1         1 GOD       0.080200
     41 H11A        -1.0660     3.3140     1.1390 h1         1 GOD       0.080200
     42 H14B        -0.0070     0.3600     2.9410 h1         1 GOD       0.074700
     43 H14A         0.1360    -0.4530     1.3590 h1         1 GOD       0.074700
     44 H16A         3.3940     1.8840     2.6060 hc         1 GOD       0.069700
     45 H16B         2.1850     0.6010     2.8540 hc         1 GOD       0.069700
     46 HC19         2.3660    -1.4750     1.6730 ha         1 GOD       0.119500
     47 HC23         4.6300     1.9500     0.3200 ha         1 GOD       0.119500
     48 HN32        -7.2490    -2.1760    -1.6230 hn         1 GOD       0.315500
     49 H33B        -5.9310    -4.2030    -3.1360 h1         1 GOD       0.041033
     50 H33C        -7.6930    -3.8920    -3.1130 h1         1 GOD       0.041033
     51 H33A        -6.6490    -3.0240    -4.2790 h1         1 GOD       0.041033
     52 O24          5.4930    -2.0350    -1.6770 os         1 GOD      -0.405100
@<TRIPOS>BOND
     1     1     8 ar  
     2     1    11 ar  
     3     1    33 1   
     4     2     3 ar  
     5     2    10 ar  
     6     2    12 1   
     7     3    11 ar  
     8     3    14 1   
     9     4    17 1   
    10     4    19 1   
    11     4    20 2   
    12     5     6 ar  
    13     5    22 ar  
    14     5    34 1   
    15     6     7 ar  
    16     6    52 1   
    17     7    23 ar  
    18     7    35 1   
    19     8     9 1   
    20     8    10 ar  
    21     9    30 2   
    22     9    31 1   
    23    10    36 1   
    24    12    13 1   
    25    13    15 1   
    26    13    16 1   
    27    13    37 1   
    28    14    38 1   
    29    14    39 1   
    30    15    17 1   
    31    15    40 1   
    32    15    41 1   
    33    16    18 1   
    34    16    28 1   
    35    16    29 1   
    36    17    18 1   
    37    18    42 1   
    38    18    43 1   
    39    19    21 1   
    40    19    44 1   
    41    19    45 1   
    42    21    22 ar  
    43    21    23 ar  
    44    22    46 1   
    45    23    47 1   
    46    24    25 1   
    47    24    26 1   
    48    24    27 1   
    49    24    52 1   
    50    31    32 1   
    51    31    48 1   
    52    32    49 1   
    53    32    50 1   
    54    32    51 1   
@<TRIPOS>SUBSTRUCTURE
     1 GOD         1 TEMP              0 ****  ****    0 ROOT
