@<TRIPOS>MOLECULE
GOD
   52    54     1     0     0
SMALL
abcg2


@<TRIPOS>ATOM
      1 C4          -7.0050     1.0780    -0.9380 ca         1 GOD       0.397900
      2 C5          -4.4170     1.1620    -0.1300 ca         1 GOD      -0.003900
      3 C8          -5.1520     2.3340    -0.4510 ca         1 GOD       0.631900
      4 C15          1.4230     0.0270     0.2820 c          1 GOD       0.611100
      5 C20          5.4970    -1.6050    -0.8750 ca         1 GOD      -0.096500
      6 C21          6.3640    -0.8120    -0.1430 ca         1 GOD       0.096100
      7 C22          5.9300    -0.0940     0.9570 ca         1 GOD      -0.096500
      8 C1          -6.3810    -0.1150    -0.6310 ca         1 GOD      -0.238600
      9 C2          -7.0240    -1.4500    -0.7520 c          1 GOD       0.623700
     10 C3          -5.0380    -0.0530    -0.2230 ca         1 GOD      -0.057000
     11 N6          -6.4150     2.2650    -0.8470 nb         1 GOD      -0.747000
     12 O7          -3.1330     1.3860     0.2480 os         1 GOD      -0.332100
     13 C9          -2.1900     0.3530     0.2120 c5         1 GOD       0.112300
     14 N10         -4.5610     3.5480    -0.3990 nv         1 GOD      -1.056900
     15 C11         -0.8120     0.9190    -0.1250 c5         1 GOD       0.102000
     16 C12         -1.9420    -0.3160     1.5610 c5         1 GOD       0.147000
     17 N13          0.0990    -0.0120     0.5240 n          1 GOD      -0.429800
     18 C14         -0.5710    -0.9440     1.4130 c5         1 GOD       0.052000
     19 C16          2.2540    -1.0240     0.9980 c3         1 GOD      -0.112100
     20 O17          1.9100     0.8560    -0.4680 o          1 GOD      -0.572100
     21 C18          3.6980    -0.9550     0.6050 ca         1 GOD      -0.059300
     22 C19          4.1660    -1.6700    -0.4920 ca         1 GOD      -0.085000
     23 C23          4.5950    -0.1720     1.3240 ca         1 GOD      -0.085000
     24 C25          8.1260     0.1320    -1.3560 c3         1 GOD       0.515000
     25 F26          9.4310    -0.0160    -1.5150 f          1 GOD      -0.108667
     26 F27          7.5410     0.0060    -2.5500 f          1 GOD      -0.108667
     27 F28          7.8910     1.3790    -0.9440 f          1 GOD      -0.108667
     28 F29         -2.8860    -1.2200     1.9160 f          1 GOD      -0.097500
     29 F30         -1.9360     0.6320     2.5350 f          1 GOD      -0.097500
     30 O31         -6.3500    -2.4690    -0.8630 o          1 GOD      -0.610100
     31 N32         -8.3650    -1.4790    -0.7400 ns         1 GOD      -0.503900
     32 C33         -9.1060    -2.7080    -0.8920 c3         1 GOD       0.095300
     33 HC4         -8.0280     1.1020    -1.3000 h4         1 GOD       0.017100
     34 HC20         5.8530    -2.1800    -1.7200 ha         1 GOD       0.135500
     35 HC22         6.6220     0.5060     1.5320 ha         1 GOD       0.135500
     36 HC3         -4.5220    -0.9720     0.0180 ha         1 GOD       0.148000
     37 HC9         -2.4570    -0.4180    -0.5200 h1         1 GOD       0.082700
     38 H10B        -3.7090     3.6710     0.1190 hn         1 GOD       0.493000
     39 H10A        -5.1570     4.3560    -0.4660 hn         1 GOD       0.493000
     40 H11B        -0.6490     0.9560    -1.2010 h1         1 GOD       0.080200
     41 H11A        -0.7000     1.9320     0.2720 h1         1 GOD       0.080200
     42 H14B        -0.0720    -1.0400     2.3790 h1         1 GOD       0.074700
     43 H14A        -0.6640    -1.9400     0.9720 h1         1 GOD       0.074700
     44 H16A         2.1460    -0.8870     2.0780 hc         1 GOD       0.069700
     45 H16B         1.8470    -2.0150     0.7770 hc         1 GOD       0.069700
     46 HC19         3.4850    -2.2940    -1.0570 ha         1 GOD       0.119500
     47 HC23         4.2550     0.3820     2.1900 ha         1 GOD       0.119500
     48 HN32        -8.8820    -0.6470    -0.5120 hn         1 GOD       0.315500
     49 H33B        -8.9560    -3.3870    -0.0500 h1         1 GOD       0.041033
     50 H33C       -10.1630    -2.4650    -0.9510 h1         1 GOD       0.041033
     51 H33A        -8.8230    -3.2300    -1.8060 h1         1 GOD       0.041033
     52 O24          7.7150    -0.7900    -0.4790 os         1 GOD      -0.405100
@<TRIPOS>BOND
     1     1     8 ar  
     2     1    11 ar  
     3     1    33 1   
     4     2     3 ar  
     5     2    10 ar  
     6     2    12 1   
     7     3    11 ar  
     8     3    14 1   
     9     4    17 1   
    10     4    19 1   
    11     4    20 2   
    12     5     6 ar  
    13     5    22 ar  
    14     5    34 1   
    15     6     7 ar  
    16     6    52 1   
    17     7    23 ar  
    18     7    35 1   
    19     8     9 1   
    20     8    10 ar  
    21     9    30 2   
    22     9    31 1   
    23    10    36 1   
    24    12    13 1   
    25    13    15 1   
    26    13    16 1   
    27    13    37 1   
    28    14    38 1   
    29    14    39 1   
    30    15    17 1   
    31    15    40 1   
    32    15    41 1   
    33    16    18 1   
    34    16    28 1   
    35    16    29 1   
    36    17    18 1   
    37    18    42 1   
    38    18    43 1   
    39    19    21 1   
    40    19    44 1   
    41    19    45 1   
    42    21    22 ar  
    43    21    23 ar  
    44    22    46 1   
    45    23    47 1   
    46    24    25 1   
    47    24    26 1   
    48    24    27 1   
    49    24    52 1   
    50    31    32 1   
    51    31    48 1   
    52    32    49 1   
    53    32    50 1   
    54    32    51 1   
@<TRIPOS>SUBSTRUCTURE
     1 GOD         1 TEMP              0 ****  ****    0 ROOT
