@<TRIPOS>MOLECULE
GOE
   29    29     1     0     0
SMALL
No Charge or Current Charge


@<TRIPOS>ATOM
      1 C4           4.1160    -0.1010    -0.1150 ca         1 GOE      -0.199000
      2 C5           3.2110     0.9460     0.1380 ca         1 GOE       0.395300
      3 C6           3.7000     2.3550     0.4090 c3         1 GOE      -0.145400
      4 C7          -0.9990     0.2080    -0.3310 c          1 GOE       0.662100
      5 C8          -3.4970     0.3700    -0.2880 c3         1 GOE       0.112000
      6 C9          -4.6990    -0.4580     0.2060 c3         1 GOE      -0.093400
      7 C10         -6.0530     0.2250    -0.0700 c3         1 GOE      -0.088100
      8 N1           0.0180    -0.6370     0.0290 ns         1 GOE      -0.350900
      9 N2           1.8740     0.7630     0.1700 nb         1 GOE      -0.690000
     10 C3           3.6250    -1.3960    -0.3410 ca         1 GOE      -0.043000
     11 N3          -2.2300    -0.3050    -0.0120 ns         1 GOE      -0.527900
     12 C1           1.4040    -0.4760    -0.0780 ca         1 GOE       0.509900
     13 C2           2.2350    -1.5820    -0.3100 ca         1 GOE      -0.224000
     14 O1          -0.8570     1.2840    -0.8920 o          1 GOE      -0.584100
     15 H1           5.1860     0.0900    -0.1250 ha         1 GOE       0.124000
     16 H2           3.0260     3.1030    -0.0260 hc         1 GOE       0.053033
     17 H3           3.7620     2.5430     1.4870 hc         1 GOE       0.053033
     18 H4           4.6950     2.5200    -0.0200 hc         1 GOE       0.053033
     19 H5          -3.5830     0.5350    -1.3710 h1         1 GOE       0.053200
     20 H6          -3.4950     1.3480     0.2110 h1         1 GOE       0.053200
     21 H7          -4.6890    -1.4400    -0.2830 hc         1 GOE       0.041700
     22 H8          -4.6000    -0.6330     1.2840 hc         1 GOE       0.041700
     23 H9          -6.8770    -0.3980     0.2970 hc         1 GOE       0.036700
     24 H10         -6.1060     1.1980     0.4350 hc         1 GOE       0.036700
     25 H11         -6.1950     0.3840    -1.1450 hc         1 GOE       0.036700
     26 H12         -0.2670    -1.5230     0.4210 hn         1 GOE       0.147000
     27 H13          4.3010    -2.2290    -0.5280 ha         1 GOE       0.116000
     28 H14         -2.2490    -1.2060     0.4480 hn         1 GOE       0.303500
     29 H15          1.8050    -2.5670    -0.4680 ha         1 GOE       0.118000
@<TRIPOS>BOND
     1     1     2 ar  
     2     1    10 ar  
     3     1    15 1   
     4     2     3 1   
     5     2     9 ar  
     6     3    16 1   
     7     3    17 1   
     8     3    18 1   
     9     4     8 1   
    10     4    11 1   
    11     4    14 2   
    12     5     6 1   
    13     5    11 1   
    14     5    19 1   
    15     5    20 1   
    16     6     7 1   
    17     6    21 1   
    18     6    22 1   
    19     7    23 1   
    20     7    24 1   
    21     7    25 1   
    22     8    12 1   
    23     8    26 1   
    24     9    12 ar  
    25    10    13 ar  
    26    10    27 1   
    27    11    28 1   
    28    12    13 ar  
    29    13    29 1   
@<TRIPOS>SUBSTRUCTURE
     1 GOE         1 TEMP              0 ****  ****    0 ROOT
