@<TRIPOS>MOLECULE
GOE
   29    29     1     0     0
SMALL
abcg2


@<TRIPOS>ATOM
      1 C4           4.0600    -0.0800    -0.1720 ca         1 GOE      -0.199000
      2 C5           3.1510     0.9480     0.0360 ca         1 GOE       0.395300
      3 C6           3.5960     2.3730     0.1600 c3         1 GOE      -0.145400
      4 C7          -1.0030     0.1340    -0.1400 c          1 GOE       0.662100
      5 C8          -3.4360     0.4130    -0.0080 c3         1 GOE       0.112000
      6 C9          -4.6520    -0.5020    -0.0040 c3         1 GOE      -0.093400
      7 C10         -5.9410     0.2820    -0.1970 c3         1 GOE      -0.088100
      8 N1           0.0230    -0.7380     0.1840 ns         1 GOE      -0.350900
      9 N2           1.8400     0.7260     0.1510 nb         1 GOE      -0.690000
     10 C3           3.5780    -1.3790    -0.2710 ca         1 GOE      -0.043000
     11 N3          -2.2220    -0.3460     0.2010 ns         1 GOE      -0.527900
     12 C1           1.3840    -0.5080     0.0370 ca         1 GOE       0.509900
     13 C2           2.2210    -1.6100    -0.1750 ca         1 GOE      -0.224000
     14 O1          -0.8350     1.2010    -0.7030 o          1 GOE      -0.584100
     15 H1           5.1180     0.1280    -0.2510 ha         1 GOE       0.124000
     16 H2           3.1220     2.9930    -0.6020 hc         1 GOE       0.053033
     17 H3           3.3140     2.7830     1.1310 hc         1 GOE       0.053033
     18 H4           4.6750     2.4680     0.0510 hc         1 GOE       0.053033
     19 H5          -3.3700     0.9290    -0.9660 h1         1 GOE       0.053200
     20 H6          -3.5550     1.1840     0.7620 h1         1 GOE       0.053200
     21 H7          -4.5440    -1.2470    -0.7970 hc         1 GOE       0.041700
     22 H8          -4.6940    -1.0530     0.9400 hc         1 GOE       0.041700
     23 H9          -6.8090    -0.3780    -0.1910 hc         1 GOE       0.036700
     24 H10         -6.0800     1.0180     0.5970 hc         1 GOE       0.036700
     25 H11         -5.9400     0.8170    -1.1480 hc         1 GOE       0.036700
     26 H12         -0.2340    -1.6950     0.3670 hn         1 GOE       0.147000
     27 H13          4.2580    -2.2060    -0.4330 ha         1 GOE       0.116000
     28 H14         -2.2770    -1.1250     0.8390 hn         1 GOE       0.303500
     29 H15          1.8130    -2.6080    -0.2670 ha         1 GOE       0.118000
@<TRIPOS>BOND
     1     1     2 ar  
     2     1    10 ar  
     3     1    15 1   
     4     2     3 1   
     5     2     9 ar  
     6     3    16 1   
     7     3    17 1   
     8     3    18 1   
     9     4     8 1   
    10     4    11 1   
    11     4    14 2   
    12     5     6 1   
    13     5    11 1   
    14     5    19 1   
    15     5    20 1   
    16     6     7 1   
    17     6    21 1   
    18     6    22 1   
    19     7    23 1   
    20     7    24 1   
    21     7    25 1   
    22     8    12 1   
    23     8    26 1   
    24     9    12 ar  
    25    10    13 ar  
    26    10    27 1   
    27    11    28 1   
    28    12    13 ar  
    29    13    29 1   
@<TRIPOS>SUBSTRUCTURE
     1 GOE         1 TEMP              0 ****  ****    0 ROOT
