@<TRIPOS>MOLECULE
GOF
   56    60     1     0     0
SMALL
No Charge or Current Charge


@<TRIPOS>ATOM
      1 C13         -7.6940    16.8000   -30.4000 ca         1 GOF      -0.059000
      2 C15         -7.8220    17.0270   -32.8260 ca         1 GOF       0.157100
      3 C17         -8.0520    17.1840   -35.2790 c3         1 GOF       0.145900
      4 C22         -6.8960    22.7730   -29.8520 ca         1 GOF      -0.136600
      5 C24         -7.4230    25.1030   -30.4160 ca         1 GOF      -0.075000
      6 C28         -7.0030    27.1790   -32.7270 ca         1 GOF      -0.065000
      7 C02         -6.1370    21.7900   -28.9750 c          1 GOF       0.624700
      8 C04         -5.8200    19.2880   -28.6830 cc         1 GOF       0.055600
      9 C05         -5.1520    19.0400   -27.5160 cd         1 GOF      -0.216300
     10 C06         -4.6960    19.9530   -26.4210 c5         1 GOF      -0.142100
     11 C08         -4.2850    17.2230   -26.1310 c5         1 GOF      -0.288700
     12 C09         -4.9590    17.6840   -27.3730 cd         1 GOF       0.252300
     13 C12         -6.5740    17.6540   -30.3690 ca         1 GOF      -0.050200
     14 C14         -8.3130    16.4910   -31.6250 ca         1 GOF      -0.171000
     15 C18         -6.6970    17.8790   -32.7990 ca         1 GOF      -0.171000
     16 C19         -6.0770    18.1880   -31.5750 ca         1 GOF      -0.059000
     17 C23         -6.7420    24.1600   -29.6280 ca         1 GOF      -0.083000
     18 C25         -8.2730    24.6850   -31.4610 ca         1 GOF      -0.141600
     19 C27         -8.4030    27.0330   -32.5950 ca         1 GOF      -0.174600
     20 C29         -6.4420    28.4380   -33.0060 ca         1 GOF      -0.122000
     21 C30         -7.2700    29.5600   -33.1660 ca         1 GOF      -0.082000
     22 C31         -8.6630    29.4220   -33.0550 ca         1 GOF      -0.122000
     23 C32         -9.2280    28.1650   -32.7760 ca         1 GOF      -0.065000
     24 C34         -8.4470    23.3030   -31.6780 ca         1 GOF      -0.075000
     25 C35         -7.7670    22.3580   -30.8910 ca         1 GOF      -0.083000
     26 N03         -6.3100    20.4520   -29.2830 ns         1 GOF      -0.403100
     27 N10         -5.4390    16.9640   -28.3610 nc         1 GOF      -0.451800
     28 N11         -5.9680    17.9730   -29.1540 na         1 GOF       0.200000
     29 O01         -5.4180    22.1790   -28.0680 o          1 GOF      -0.552100
     30 O16         -8.4730    16.6880   -33.9950 os         1 GOF      -0.334100
     31 O21         -2.5370    19.0060   -24.9730 o          1 GOF      -0.512000
     32 O33        -10.1310    25.4060   -32.7640 o          1 GOF      -0.511100
     33 S07         -3.9820    18.7830   -25.1180 s6         1 GOF       1.027000
     34 H1          -8.0860    16.3800   -29.4760 ha         1 GOF       0.134500
     35 H2          -8.7050    16.7930   -36.0690 h1         1 GOF       0.045700
     36 H3          -8.1000    18.2800   -35.3090 h1         1 GOF       0.045700
     37 H4          -7.0240    16.8690   -35.5010 h1         1 GOF       0.045700
     38 H5          -7.2940    26.1610   -30.1990 ha         1 GOF       0.133000
     39 H7          -3.8880    20.6180   -26.7420 h1         1 GOF       0.113700
     40 H8          -5.5220    20.5090   -25.9630 h1         1 GOF       0.113700
     41 H9          -4.9250    16.5550   -25.5460 h1         1 GOF       0.118700
     42 H10         -3.3150    16.7640   -26.3460 h1         1 GOF       0.118700
     43 H11         -9.1780    15.8340   -31.6430 ha         1 GOF       0.132500
     44 H12         -6.2900    18.3060   -33.7110 ha         1 GOF       0.132500
     45 H13         -5.2040    18.8390   -31.5650 ha         1 GOF       0.134500
     46 H14         -6.0920    24.5190   -28.8320 ha         1 GOF       0.128500
     47 H15         -5.3630    28.5410   -33.1030 ha         1 GOF       0.119500
     48 H16         -6.8340    30.5330   -33.3830 ha         1 GOF       0.117000
     49 H17         -9.3070    30.2890   -33.1850 ha         1 GOF       0.119500
     50 H18        -10.3100    28.0740   -32.6930 ha         1 GOF       0.125000
     51 H19         -9.1110    22.9560   -32.4680 ha         1 GOF       0.133000
     52 H20         -7.9390    21.3060   -31.1070 ha         1 GOF       0.128500
     53 H21         -6.8870    20.3130   -30.1000 hn         1 GOF       0.340500
     54 O20         -4.8420    18.7710   -23.9260 o          1 GOF      -0.512000
     55 C26         -9.0270    25.6850   -32.3110 c          1 GOF       0.591300
     56 H6          -6.3440    26.3190   -32.6270 ha         1 GOF       0.125000
@<TRIPOS>BOND
     1     1    13 ar  
     2     1    14 ar  
     3     1    34 1   
     4     2    14 ar  
     5     2    15 ar  
     6     2    30 1   
     7     3    30 1   
     8     3    35 1   
     9     3    36 1   
    10     3    37 1   
    11     4     7 1   
    12     4    17 ar  
    13     4    25 ar  
    14     5    17 ar  
    15     5    18 ar  
    16     5    38 1   
    17     6    19 ar  
    18     6    20 ar  
    19     6    56 1   
    20     7    26 1   
    21     7    29 2   
    22     8     9 2   
    23     8    26 1   
    24     8    28 1   
    25     9    10 1   
    26     9    12 1   
    27    10    33 1   
    28    10    39 1   
    29    10    40 1   
    30    11    12 1   
    31    11    33 1   
    32    11    41 1   
    33    11    42 1   
    34    12    27 2   
    35    13    16 ar  
    36    13    28 1   
    37    14    43 1   
    38    15    16 ar  
    39    15    44 1   
    40    16    45 1   
    41    17    46 1   
    42    18    24 ar  
    43    18    55 1   
    44    19    23 ar  
    45    19    55 1   
    46    20    21 ar  
    47    20    47 1   
    48    21    22 ar  
    49    21    48 1   
    50    22    23 ar  
    51    22    49 1   
    52    23    50 1   
    53    24    25 ar  
    54    24    51 1   
    55    25    52 1   
    56    26    53 1   
    57    27    28 1   
    58    31    33 2   
    59    32    55 2   
    60    33    54 2   
@<TRIPOS>SUBSTRUCTURE
     1 GOF         1 TEMP              0 ****  ****    0 ROOT
