@<TRIPOS>MOLECULE
GOF
   56    60     1     0     0
SMALL
abcg2


@<TRIPOS>ATOM
      1 C13         -7.6990    16.8240   -30.3350 ca         1 GOF      -0.059000
      2 C15         -7.9670    17.0230   -32.7230 ca         1 GOF       0.157100
      3 C17         -8.2900    17.1220   -35.0710 c3         1 GOF       0.145900
      4 C22         -6.6730    22.6730   -30.1320 ca         1 GOF      -0.136600
      5 C24         -7.3350    24.9570   -30.4950 ca         1 GOF      -0.075000
      6 C28         -6.9360    27.2950   -32.5210 ca         1 GOF      -0.065000
      7 C02         -5.9270    21.6860   -29.3010 c          1 GOF       0.624700
      8 C04         -5.8570    19.3520   -28.6710 cc         1 GOF       0.055600
      9 C05         -5.1210    19.2240   -27.5200 cd         1 GOF      -0.216300
     10 C06         -4.6210    20.0570   -26.4010 c5         1 GOF      -0.142100
     11 C08         -4.1170    17.3850   -26.2390 c5         1 GOF      -0.288700
     12 C09         -4.8750    17.8450   -27.4300 cd         1 GOF       0.252300
     13 C12         -6.6500    17.7360   -30.3790 ca         1 GOF      -0.050200
     14 C14         -8.3470    16.4640   -31.4990 ca         1 GOF      -0.171000
     15 C18         -6.9180    17.9400   -32.7620 ca         1 GOF      -0.171000
     16 C19         -6.2580    18.2830   -31.5900 ca         1 GOF      -0.059000
     17 C23         -6.6780    24.0060   -29.7330 ca         1 GOF      -0.083000
     18 C25         -7.9910    24.5900   -31.6680 ca         1 GOF      -0.141600
     19 C27         -8.2940    26.9780   -32.5630 ca         1 GOF      -0.174600
     20 C29         -6.5210    28.6100   -32.6740 ca         1 GOF      -0.122000
     21 C30         -7.4580    29.6180   -32.8510 ca         1 GOF      -0.082000
     22 C31         -8.8140    29.3090   -32.8930 ca         1 GOF      -0.122000
     23 C32         -9.2290    27.9950   -32.7640 ca         1 GOF      -0.065000
     24 C34         -7.9820    23.2550   -32.0670 ca         1 GOF      -0.075000
     25 C35         -7.3200    22.3050   -31.3100 ca         1 GOF      -0.083000
     26 N03         -6.4510    20.4290   -29.2990 ns         1 GOF      -0.403100
     27 N10         -5.4040    17.1650   -28.4170 nc         1 GOF      -0.451800
     28 N11         -5.9820    18.1000   -29.1860 na         1 GOF       0.200000
     29 O01         -4.9280    21.9820   -28.6780 o          1 GOF      -0.552100
     30 O16         -8.6600    16.6210   -33.7990 os         1 GOF      -0.334100
     31 O21         -3.1920    19.0580   -24.3050 o          1 GOF      -0.512000
     32 O33         -9.7850    25.2230   -33.0380 o          1 GOF      -0.511100
     33 S07         -4.3790    18.7900   -25.1060 s6         1 GOF       1.027000
     34 H1          -8.0060    16.3950   -29.3900 ha         1 GOF       0.134500
     35 H2          -8.9660    16.6650   -35.7890 h1         1 GOF       0.045700
     36 H3          -8.3970    18.2070   -35.1280 h1         1 GOF       0.045700
     37 H4          -7.2640    16.8520   -35.3300 h1         1 GOF       0.045700
     38 H5          -7.3500    25.9850   -30.1560 ha         1 GOF       0.133000
     39 H7          -3.6560    20.5250   -26.5980 h1         1 GOF       0.113700
     40 H8          -5.3170    20.8000   -26.0120 h1         1 GOF       0.113700
     41 H9          -4.4950    16.4780   -25.7670 h1         1 GOF       0.118700
     42 H10         -3.0460    17.2920   -26.4230 h1         1 GOF       0.118700
     43 H11         -9.1610    15.7510   -31.4690 ha         1 GOF       0.132500
     44 H12         -6.5900    18.3870   -33.6900 ha         1 GOF       0.132500
     45 H13         -5.4260    18.9740   -31.6360 ha         1 GOF       0.134500
     46 H14         -6.1800    24.3030   -28.8200 ha         1 GOF       0.128500
     47 H15         -5.4650    28.8440   -32.6540 ha         1 GOF       0.119500
     48 H16         -7.1350    30.6450   -32.9600 ha         1 GOF       0.117000
     49 H17         -9.5450    30.0940   -33.0300 ha         1 GOF       0.119500
     50 H18        -10.2850    27.7580   -32.8010 ha         1 GOF       0.125000
     51 H19         -8.4760    22.9570   -32.9820 ha         1 GOF       0.133000
     52 H20         -7.2960    21.2820   -31.6650 ha         1 GOF       0.128500
     53 H21         -7.3480    20.2720   -29.7360 hn         1 GOF       0.340500
     54 O20         -5.6520    18.5850   -24.4210 o          1 GOF      -0.512000
     55 C26         -8.7700    25.5750   -32.4720 c          1 GOF       0.591300
     56 H6          -6.1960    26.5160   -32.3950 ha         1 GOF       0.125000
@<TRIPOS>BOND
     1     1    13 ar  
     2     1    14 ar  
     3     1    34 1   
     4     2    14 ar  
     5     2    15 ar  
     6     2    30 1   
     7     3    30 1   
     8     3    35 1   
     9     3    36 1   
    10     3    37 1   
    11     4     7 1   
    12     4    17 ar  
    13     4    25 ar  
    14     5    17 ar  
    15     5    18 ar  
    16     5    38 1   
    17     6    19 ar  
    18     6    20 ar  
    19     6    56 1   
    20     7    26 1   
    21     7    29 2   
    22     8     9 2   
    23     8    26 1   
    24     8    28 1   
    25     9    10 1   
    26     9    12 1   
    27    10    33 1   
    28    10    39 1   
    29    10    40 1   
    30    11    12 1   
    31    11    33 1   
    32    11    41 1   
    33    11    42 1   
    34    12    27 2   
    35    13    16 ar  
    36    13    28 1   
    37    14    43 1   
    38    15    16 ar  
    39    15    44 1   
    40    16    45 1   
    41    17    46 1   
    42    18    24 ar  
    43    18    55 1   
    44    19    23 ar  
    45    19    55 1   
    46    20    21 ar  
    47    20    47 1   
    48    21    22 ar  
    49    21    48 1   
    50    22    23 ar  
    51    22    49 1   
    52    23    50 1   
    53    24    25 ar  
    54    24    51 1   
    55    25    52 1   
    56    26    53 1   
    57    27    28 1   
    58    31    33 2   
    59    32    55 2   
    60    33    54 2   
@<TRIPOS>SUBSTRUCTURE
     1 GOF         1 TEMP              0 ****  ****    0 ROOT
