@<TRIPOS>MOLECULE
GOG
   17    17     1     0     0
SMALL
No Charge or Current Charge


@<TRIPOS>ATOM
      1 C10          0.5350    -0.1270    -0.0390 ca         1 GOG      -0.253600
      2 C02         -2.0140     0.2800     0.0220 c          1 GOG       0.752600
      3 C04         -0.5720     0.7700     0.0150 ca         1 GOG      -0.028600
      4 C05         -0.3250     2.1640     0.0220 ca         1 GOG      -0.192000
      5 C06          0.9820     2.6680    -0.0410 ca         1 GOG      -0.108000
      6 C07          2.0630     1.7820    -0.1250 ca         1 GOG      -0.260000
      7 C08          1.8390     0.4000    -0.1290 ca         1 GOG       0.194100
      8 C11          0.3300    -1.6200     0.0290 c          1 GOG       0.716600
      9 O01         -2.7530     0.6550     0.9250 o          1 GOG      -0.743500
     10 O03         -2.4150    -0.3520    -0.9490 o          1 GOG      -0.743500
     11 O09          2.9030    -0.4360    -0.2360 oh         1 GOG      -0.685100
     12 O12          1.1190    -2.3220    -0.5910 o          1 GOG      -0.698500
     13 O13         -0.4650    -2.0620     0.8420 o          1 GOG      -0.698500
     14 H1          -1.1610     2.8570     0.0640 ha         1 GOG       0.084000
     15 H2           1.1540     3.7420    -0.0390 ha         1 GOG       0.049000
     16 H3           3.0760     2.1710    -0.1900 ha         1 GOG       0.070000
     17 H5           2.4910    -1.3300    -0.4080 ho         1 GOG       0.545000
@<TRIPOS>BOND
     1     1     3 ar  
     2     1     7 ar  
     3     1     8 1   
     4     2     3 1   
     5     2     9 1   
     6     2    10 1   
     7     3     4 ar  
     8     4     5 ar  
     9     4    14 1   
    10     5     6 ar  
    11     5    15 1   
    12     6     7 ar  
    13     6    16 1   
    14     7    11 1   
    15     8    12 1   
    16     8    13 1   
    17    11    17 1   
@<TRIPOS>SUBSTRUCTURE
     1 GOG         1 TEMP              0 ****  ****    0 ROOT
