@<TRIPOS>MOLECULE
GOG
   17    17     1     0     0
SMALL
abcg2


@<TRIPOS>ATOM
      1 C10          0.5360    -0.1230    -0.0410 ca         1 GOG      -0.253600
      2 C02         -2.0060     0.3150     0.1220 c          1 GOG       0.752600
      3 C04         -0.5530     0.7540     0.0150 ca         1 GOG      -0.028600
      4 C05         -0.3330     2.1300    -0.0310 ca         1 GOG      -0.192000
      5 C06          0.9570     2.6350    -0.1330 ca         1 GOG      -0.108000
      6 C07          2.0470     1.7850    -0.1890 ca         1 GOG      -0.260000
      7 C08          1.8460     0.4030    -0.1450 ca         1 GOG       0.194100
      8 C11          0.3550    -1.6180     0.0040 c          1 GOG       0.716600
      9 O01         -2.4710     0.2530     1.2750 o          1 GOG      -0.743500
     10 O03         -2.6140     0.1740    -0.9530 o          1 GOG      -0.743500
     11 O09          2.9010    -0.4060    -0.2010 oh         1 GOG      -0.685100
     12 O12          1.4250    -2.3110    -0.0730 o          1 GOG      -0.698500
     13 O13         -0.7740    -2.0970     0.1080 o          1 GOG      -0.698500
     14 H1          -1.1710     2.8150     0.0100 ha         1 GOG       0.084000
     15 H2           1.1140     3.7060    -0.1680 ha         1 GOG       0.049000
     16 H3           3.0550     2.1740    -0.2690 ha         1 GOG       0.070000
     17 H5           2.4720    -1.3500    -0.1590 ho         1 GOG       0.545000
@<TRIPOS>BOND
     1     1     3 ar  
     2     1     7 ar  
     3     1     8 1   
     4     2     3 1   
     5     2     9 1   
     6     2    10 1   
     7     3     4 ar  
     8     4     5 ar  
     9     4    14 1   
    10     5     6 ar  
    11     5    15 1   
    12     6     7 ar  
    13     6    16 1   
    14     7    11 1   
    15     8    12 1   
    16     8    13 1   
    17    11    17 1   
@<TRIPOS>SUBSTRUCTURE
     1 GOG         1 TEMP              0 ****  ****    0 ROOT
