@<TRIPOS>MOLECULE
GOH
   28    31     1     0     0
SMALL
abcg2


@<TRIPOS>ATOM
      1 C1          -2.0560     0.3850     0.1000 cc         1 GOH       0.506300
      2 N1          -1.5370    -0.7910     0.0800 nd         1 GOH      -0.686000
      3 C2          -0.1730    -0.5890     0.0340 cd         1 GOH       0.162000
      4 C3           0.0660     0.7450     0.0560 cc         1 GOH       0.283500
      5 O           -1.1300     1.3640     0.0990 os         1 GOH      -0.256000
      6 C4           0.7190    -1.7130    -0.0610 cd         1 GOH       0.386500
      7 N2           1.1840     1.5410     0.0650 na         1 GOH       0.006500
      8 C5          -3.4620     0.7730     0.0880 cx         1 GOH      -0.191000
      9 C6           1.3300     2.7050    -0.6610 cc         1 GOH      -0.158500
     10 C7           2.5580     3.2200    -0.3750 cd         1 GOH      -0.162000
     11 C8           3.1850     2.3460     0.5600 cd         1 GOH      -0.162000
     12 C9           2.3200     1.3250     0.8140 cc         1 GOH      -0.158500
     13 N3           2.0310    -1.7300    -0.1300 nc         1 GOH      -0.385000
     14 N4           2.3780    -3.0120    -0.2250 nc         1 GOH      -0.042000
     15 N5           1.3550    -3.7720    -0.2150 nd         1 GOH      -0.200800
     16 N6           0.3030    -2.9810    -0.1120 na         1 GOH      -0.194700
     17 C10         -4.3900     0.0910    -0.8920 cx         1 GOH      -0.098900
     18 C11         -4.4900    -0.2200     0.5570 cx         1 GOH      -0.098900
     19 H5          -3.6440     1.8200     0.2950 hc         1 GOH       0.108700
     20 H6          -0.6370    -3.3530    -0.0880 hn         1 GOH       0.401000
     21 HA           0.5550     3.0530    -1.3230 h4         1 GOH       0.159500
     22 H9           2.4040     0.4700     1.4620 h4         1 GOH       0.159500
     23 H101        -5.1520     0.7080    -1.3490 hc         1 GOH       0.084950
     24 H102        -3.9520    -0.6530    -1.5450 hc         1 GOH       0.084950
     25 H111        -4.1300    -1.1810     0.8990 hc         1 GOH       0.084950
     26 H112        -5.3260     0.1800     1.1160 hc         1 GOH       0.084950
     27 H7           2.9700     4.1250    -0.7910 ha         1 GOH       0.140500
     28 H8           4.1620     2.4620     1.0000 ha         1 GOH       0.140500
@<TRIPOS>BOND
     1     1     2 2   
     2     1     5 1   
     3     1     8 1   
     4     2     3 1   
     5     3     4 2   
     6     3     6 1   
     7     4     5 1   
     8     4     7 1   
     9     6    13 2   
    10     6    16 1   
    11     7     9 1   
    12     7    12 1   
    13     8    17 1   
    14     8    18 1   
    15     8    19 1   
    16     9    10 2   
    17     9    21 1   
    18    10    11 1   
    19    10    27 1   
    20    11    12 2   
    21    11    28 1   
    22    12    22 1   
    23    13    14 1   
    24    14    15 2   
    25    15    16 1   
    26    16    20 1   
    27    17    18 1   
    28    17    23 1   
    29    17    24 1   
    30    18    25 1   
    31    18    26 1   
@<TRIPOS>SUBSTRUCTURE
     1 GOH         1 TEMP              0 ****  ****    0 ROOT
