@<TRIPOS>MOLECULE
GOH
   28    31     1     0     0
SMALL
No Charge or Current Charge


@<TRIPOS>ATOM
      1 C1          -2.0620     0.1870     0.3380 cc         1 GOH       0.506300
      2 N1          -1.4730    -0.9940     0.5110 nd         1 GOH      -0.686000
      3 C2          -0.1380    -0.7580     0.2010 cd         1 GOH       0.162000
      4 C3          -0.0210     0.5800    -0.1070 cc         1 GOH       0.283500
      5 O           -1.2270     1.1930    -0.0630 os         1 GOH      -0.256000
      6 C4           0.9090    -1.7650     0.1470 cd         1 GOH       0.386500
      7 N2           1.2020     1.2050    -0.3630 na         1 GOH       0.006500
      8 C5          -3.4840     0.5120     0.5290 cx         1 GOH      -0.191000
      9 C6           1.1710     2.3960    -1.0840 cc         1 GOH      -0.158500
     10 C7           2.2960     3.0620    -0.6710 cd         1 GOH      -0.162000
     11 C8           2.9060     2.3390     0.3830 cd         1 GOH      -0.162000
     12 C9           2.1710     1.2110     0.6430 cc         1 GOH      -0.158500
     13 N3           2.1630    -1.6610    -0.2510 nc         1 GOH      -0.385000
     14 N4           2.6880    -2.9280    -0.1340 nc         1 GOH      -0.042000
     15 N5           1.8080    -3.7920     0.2970 nd         1 GOH      -0.200800
     16 N6           0.6690    -3.0710     0.4750 na         1 GOH      -0.194700
     17 C10         -4.2740     1.1340    -0.6050 cx         1 GOH      -0.098900
     18 C11         -4.5450    -0.2940    -0.1920 cx         1 GOH      -0.098900
     19 H5          -3.7080     0.8460     1.5390 hc         1 GOH       0.108700
     20 H6          -0.2050    -3.4680     0.7990 hn         1 GOH       0.401000
     21 HA           0.4050     2.6460    -1.8100 h4         1 GOH       0.159500
     22 H9           2.2620     0.4570     1.4160 h4         1 GOH       0.159500
     23 H101        -5.0190     1.8850    -0.3520 hc         1 GOH       0.084950
     24 H102        -3.7690     1.2980    -1.5550 hc         1 GOH       0.084950
     25 H111        -4.2210    -1.0860    -0.8640 hc         1 GOH       0.084950
     26 H112        -5.4730    -0.5020     0.3380 hc         1 GOH       0.084950
     27 H7           2.6290     4.0250    -1.0500 ha         1 GOH       0.140500
     28 H8           3.7790     2.6600     0.9440 ha         1 GOH       0.140500
@<TRIPOS>BOND
     1     1     2 2   
     2     1     5 1   
     3     1     8 1   
     4     2     3 1   
     5     3     4 2   
     6     3     6 1   
     7     4     5 1   
     8     4     7 1   
     9     6    13 2   
    10     6    16 1   
    11     7     9 1   
    12     7    12 1   
    13     8    17 1   
    14     8    18 1   
    15     8    19 1   
    16     9    10 2   
    17     9    21 1   
    18    10    11 1   
    19    10    27 1   
    20    11    12 2   
    21    11    28 1   
    22    12    22 1   
    23    13    14 1   
    24    14    15 2   
    25    15    16 1   
    26    16    20 1   
    27    17    18 1   
    28    17    23 1   
    29    17    24 1   
    30    18    25 1   
    31    18    26 1   
@<TRIPOS>SUBSTRUCTURE
     1 GOH         1 TEMP              0 ****  ****    0 ROOT
