@<TRIPOS>MOLECULE
GOI
   77    81     1     0     0
SMALL
No Charge or Current Charge


@<TRIPOS>ATOM
      1 C1         -26.9910    82.3720    14.6570 c6         1 GOI       0.397300
      2 O1         -26.4740    83.2990    13.6760 os         1 GOI      -0.415000
      3 C2         -28.5590    82.4020    14.6850 c6         1 GOI       0.148300
      4 O2         -29.1110    83.7070    14.9880 oh         1 GOI      -0.714000
      5 C3         -29.0590    81.3720    15.7370 c6         1 GOI       0.131300
      6 O3         -30.4970    81.3330    15.7720 oh         1 GOI      -0.668000
      7 C4         -28.4880    79.9560    15.4300 c6         1 GOI       0.111300
      8 O4         -28.9340    79.0220    16.4410 oh         1 GOI      -0.735000
      9 C5         -26.9270    80.0430    15.3440 c6         1 GOI       0.156300
     10 O5         -26.5480    81.0330    14.3540 os         1 GOI      -0.461000
     11 C6         -26.2530    78.6830    14.9560 c3         1 GOI       0.165600
     12 O6         -26.6800    78.1660    13.6790 oh         1 GOI      -0.715000
     13 CAE        -24.6430    75.8820     3.9070 ca         1 GOI      -0.126000
     14 CAF        -19.3660    80.9610     2.8650 ca         1 GOI      -0.126000
     15 CAG        -25.2290    76.8870     3.1250 ca         1 GOI      -0.089000
     16 CAH        -20.4990    81.4770     2.2200 ca         1 GOI      -0.089000
     17 CAI        -23.5600    76.1880     4.7490 ca         1 GOI      -0.089000
     18 CAJ        -19.5130    80.0210     3.8990 ca         1 GOI      -0.089000
     19 CAK        -24.7330    78.1980     3.1920 ca         1 GOI      -0.151000
     20 CAL        -21.7780    81.0640     2.6260 ca         1 GOI      -0.151000
     21 CAM        -21.9120    77.7350     5.7230 cc         1 GOI      -0.086000
     22 CAN        -20.8630    78.5730     5.3800 cd         1 GOI      -0.086000
     23 CAO        -23.6720    80.8690     6.3410 c3         1 GOI      -0.088400
     24 CAQ        -25.0540    83.5760    13.6910 c3         1 GOI       0.167600
     25 CAS        -24.2460    82.4980    12.9040 c3         1 GOI       0.145800
     26 CAT        -24.8400    83.2760     9.1350 c6         1 GOI       0.162800
     27 CAU        -24.3300    80.8960     9.3710 c6         1 GOI       0.162800
     28 CAV        -24.4220    83.5170    10.6220 c6         1 GOI       0.170300
     29 CAW        -23.9130    81.1360    10.8590 c6         1 GOI       0.170300
     30 CAX        -23.9990    80.8220     4.8360 c3         1 GOI       0.065600
     31 CBA        -23.0430    77.4970     4.8160 ca         1 GOI      -0.049000
     32 CBB        -20.7900    79.5700     4.2920 ca         1 GOI      -0.049000
     33 CBC        -23.6480    78.5070     4.0360 ca         1 GOI       0.031800
     34 CBD        -21.9290    80.1230     3.6630 ca         1 GOI       0.031800
     35 NBJ        -24.1320    82.1120     8.5160 n3         1 GOI      -0.723600
     36 NBK        -24.6180    82.3010    11.4730 n3         1 GOI      -0.708600
     37 NBL        -23.2050    79.8150     4.1090 na         1 GOI      -0.160600
     38 H1         -26.6150    82.6620    15.6500 h2         1 GOI       0.027700
     39 H2         -28.9090    82.0730    13.6940 h1         1 GOI       0.075700
     40 HO2        -30.0320    83.5200    15.2930 ho         1 GOI       0.521000
     41 H3         -28.6770    81.6800    16.7230 h1         1 GOI       0.049700
     42 HO3        -30.7120    80.4920    16.2400 ho         1 GOI       0.462000
     43 H4         -28.8620    79.6480    14.4410 h1         1 GOI       0.080700
     44 HO4        -28.8090    78.1140    16.0740 ho         1 GOI       0.514000
     45 H5         -26.5240    80.3540    16.3200 h1         1 GOI       0.044700
     46 H6         -25.1660    78.8420    14.9500 h1         1 GOI       0.033200
     47 H6A        -26.4620    77.9520    15.7490 h1         1 GOI       0.033200
     48 HO6        -26.0910    77.4050    13.4650 ho         1 GOI       0.502000
     49 HAF        -18.3730    81.2870     2.5640 ha         1 GOI       0.115000
     50 HAG        -26.0680    76.6530     2.4720 ha         1 GOI       0.113000
     51 HAH        -20.3880    82.2060     1.4210 ha         1 GOI       0.113000
     52 HAI        -23.1140    75.3980     5.3490 ha         1 GOI       0.111500
     53 HAJ        -18.6240    79.6250     4.3850 ha         1 GOI       0.111500
     54 HAK        -25.1940    78.9790     2.5920 ha         1 GOI       0.115000
     55 HAL        -22.6560    81.4880     2.1430 ha         1 GOI       0.115000
     56 HAM        -21.7830    77.0970     6.5910 ha         1 GOI       0.104000
     57 HAN        -20.0040    78.5300     6.0420 ha         1 GOI       0.104000
     58 HAO        -22.6080    81.0970     6.4710 hc         1 GOI       0.060200
     59 HAOA       -23.8480    79.8760     6.7680 hc         1 GOI       0.060200
     60 HAQ        -24.8640    84.5560    13.2340 h1         1 GOI       0.049700
     61 HAQA       -24.6790    83.6280    14.7220 h1         1 GOI       0.049700
     62 HAS        -23.1860    82.7800    12.9610 h1         1 GOI       0.033700
     63 HASA       -24.3280    81.5440    13.4400 h1         1 GOI       0.033700
     64 HAT        -25.9280    83.1170     9.1020 h1         1 GOI       0.041200
     65 HATA       -24.6340    84.1930     8.5640 h1         1 GOI       0.041200
     66 HAU        -23.7380    80.0520     8.9910 h1         1 GOI       0.041200
     67 HAUA       -25.3850    80.5860     9.3490 h1         1 GOI       0.041200
     68 HAV        -23.3660    83.8260    10.6440 h1         1 GOI       0.034450
     69 HAVA       -25.0130    84.3590    11.0090 h1         1 GOI       0.034450
     70 HAW        -24.1250    80.2210    11.4320 h1         1 GOI       0.034450
     71 HAWA       -22.8250    81.2920    10.8950 h1         1 GOI       0.034450
     72 HAX        -25.0650    80.5950     4.7040 h1         1 GOI       0.036200
     73 HAXA       -23.8130    81.8090     4.3930 h1         1 GOI       0.036200
     74 CAR        -24.5120    81.9200     7.0960 c3         1 GOI       0.169800
     75 HAE        -25.0270    74.8650     3.8630 ha         1 GOI       0.115000
     76 HAR        -24.3990    82.8760     6.5660 h1         1 GOI       0.028700
     77 HARA       -25.5720    81.6400     7.0260 h1         1 GOI       0.028700
@<TRIPOS>BOND
     1     1     2 1   
     2     1     3 1   
     3     1    10 1   
     4     1    38 1   
     5     2    24 1   
     6     3     4 1   
     7     3     5 1   
     8     3    39 1   
     9     4    40 1   
    10     5     6 1   
    11     5     7 1   
    12     5    41 1   
    13     6    42 1   
    14     7     8 1   
    15     7     9 1   
    16     7    43 1   
    17     8    44 1   
    18     9    10 1   
    19     9    11 1   
    20     9    45 1   
    21    11    12 1   
    22    11    46 1   
    23    11    47 1   
    24    12    48 1   
    25    13    15 ar  
    26    13    17 ar  
    27    13    75 1   
    28    14    16 ar  
    29    14    18 ar  
    30    14    49 1   
    31    15    19 ar  
    32    15    50 1   
    33    16    20 ar  
    34    16    51 1   
    35    17    31 ar  
    36    17    52 1   
    37    18    32 ar  
    38    18    53 1   
    39    19    33 ar  
    40    19    54 1   
    41    20    34 ar  
    42    20    55 1   
    43    21    22 2   
    44    21    31 1   
    45    21    56 1   
    46    22    32 1   
    47    22    57 1   
    48    23    30 1   
    49    23    58 1   
    50    23    59 1   
    51    23    74 1   
    52    24    25 1   
    53    24    60 1   
    54    24    61 1   
    55    25    36 1   
    56    25    62 1   
    57    25    63 1   
    58    26    28 1   
    59    26    35 1   
    60    26    64 1   
    61    26    65 1   
    62    27    29 1   
    63    27    35 1   
    64    27    66 1   
    65    27    67 1   
    66    28    36 1   
    67    28    68 1   
    68    28    69 1   
    69    29    36 1   
    70    29    70 1   
    71    29    71 1   
    72    30    37 1   
    73    30    72 1   
    74    30    73 1   
    75    31    33 ar  
    76    32    34 ar  
    77    33    37 1   
    78    34    37 1   
    79    35    74 1   
    80    74    76 1   
    81    74    77 1   
@<TRIPOS>SUBSTRUCTURE
     1 GOI         1 TEMP              0 ****  ****    0 ROOT
