@<TRIPOS>MOLECULE
GOI
   77    81     1     0     0
SMALL
abcg2


@<TRIPOS>ATOM
      1 C1         -27.0030    82.5580    14.4010 c6         1 GOI       0.397300
      2 O1         -27.1300    83.5350    13.4270 os         1 GOI      -0.415000
      3 C2         -28.3600    82.3270    15.0560 c6         1 GOI       0.148300
      4 O2         -28.7330    83.5110    15.7490 oh         1 GOI      -0.714000
      5 C3         -28.2910    81.1410    16.0060 c6         1 GOI       0.131300
      6 O3         -29.6130    80.9210    16.4910 oh         1 GOI      -0.668000
      7 C4         -27.7200    79.9100    15.3230 c6         1 GOI       0.111300
      8 O4         -27.5730    78.9040    16.3260 oh         1 GOI      -0.735000
      9 C5         -26.3760    80.2710    14.6800 c6         1 GOI       0.156300
     10 O5         -26.5750    81.3550    13.7730 os         1 GOI      -0.461000
     11 C6         -25.7280    79.1330    13.9240 c3         1 GOI       0.165600
     12 O6         -26.6300    78.6340    12.9360 oh         1 GOI      -0.715000
     13 CAE        -24.7330    76.4210     2.0820 ca         1 GOI      -0.126000
     14 CAF        -19.0770    80.2220     4.8440 ca         1 GOI      -0.126000
     15 CAG        -25.1520    77.7470     2.0740 ca         1 GOI      -0.089000
     16 CAH        -20.0500    81.1740     4.5580 ca         1 GOI      -0.089000
     17 CAI        -23.7640    76.0210     2.9910 ca         1 GOI      -0.089000
     18 CAJ        -19.4620    78.9150     5.1000 ca         1 GOI      -0.089000
     19 CAK        -24.6060    78.6550     2.9740 ca         1 GOI      -0.151000
     20 CAL        -21.3920    80.8130     4.5380 ca         1 GOI      -0.151000
     21 CAM        -22.1650    76.4310     4.8140 cc         1 GOI      -0.086000
     22 CAN        -21.1340    77.1260     5.3240 cd         1 GOI      -0.086000
     23 CAO        -23.7800    80.6540     6.7690 c3         1 GOI      -0.088400
     24 CAQ        -25.9660    84.3380    13.1830 c3         1 GOI       0.167600
     25 CAS        -24.7850    83.5930    12.5780 c3         1 GOI       0.145800
     26 CAT        -25.5080    83.2580     8.8960 c6         1 GOI       0.162800
     27 CAU        -24.4510    81.2550     9.6590 c6         1 GOI       0.162800
     28 CAV        -25.1440    83.9510    10.1980 c6         1 GOI       0.170300
     29 CAW        -24.0840    81.9500    10.9590 c6         1 GOI       0.170300
     30 CAX        -24.1020    80.1830     5.3550 c3         1 GOI       0.065600
     31 CBA        -23.1910    76.9200     3.9000 ca         1 GOI      -0.049000
     32 CBB        -20.8080    78.5260     5.0750 ca         1 GOI      -0.049000
     33 CBC        -23.6420    78.2560     3.9020 ca         1 GOI       0.031800
     34 CBD        -21.7890    79.5030     4.8110 ca         1 GOI       0.031800
     35 NBJ        -24.5380    82.2180     8.5640 n3         1 GOI      -0.723600
     36 NBK        -25.0590    82.9830    11.2860 n3         1 GOI      -0.708600
     37 NBL        -23.1670    79.1570     4.8930 na         1 GOI      -0.160600
     38 H1         -26.2650    82.8550    15.1610 h2         1 GOI       0.027700
     39 H2         -29.0810    82.1050    14.2590 h1         1 GOI       0.075700
     40 HO2        -29.5120    83.3000    16.2800 ho         1 GOI       0.521000
     41 H3         -27.6310    81.4060    16.8430 h1         1 GOI       0.049700
     42 HO3        -29.5730    80.2080    17.1410 ho         1 GOI       0.462000
     43 H4         -28.4110    79.5750    14.5470 h1         1 GOI       0.080700
     44 HO4        -27.6320    78.0360    15.9080 ho         1 GOI       0.514000
     45 H5         -25.6790    80.5740    15.4740 h1         1 GOI       0.044700
     46 H6         -24.8090    79.5040    13.4590 h1         1 GOI       0.033200
     47 H6A        -25.4600    78.3490    14.6380 h1         1 GOI       0.033200
     48 HO6        -26.2000    77.8980    12.4820 ho         1 GOI       0.502000
     49 HAF        -18.0300    80.4970     4.8750 ha         1 GOI       0.115000
     50 HAG        -25.9080    78.0780     1.3740 ha         1 GOI       0.113000
     51 HAH        -19.7700    82.2010     4.3590 ha         1 GOI       0.113000
     52 HAI        -23.4360    74.9880     3.0120 ha         1 GOI       0.111500
     53 HAJ        -18.7140    78.1650     5.3280 ha         1 GOI       0.111500
     54 HAK        -24.9450    79.6810     2.9660 ha         1 GOI       0.115000
     55 HAL        -22.1390    81.5660     4.3320 ha         1 GOI       0.115000
     56 HAM        -22.1950    75.3650     5.0130 ha         1 GOI       0.104000
     57 HAN        -20.3980    76.5770     5.9020 ha         1 GOI       0.104000
     58 HAO        -22.8200    81.1730     6.7930 hc         1 GOI       0.060200
     59 HAOA       -23.6880    79.7740     7.4080 hc         1 GOI       0.060200
     60 HAQ        -26.3130    85.1330    12.5250 h1         1 GOI       0.049700
     61 HAQA       -25.6410    84.7950    14.1230 h1         1 GOI       0.049700
     62 HAS        -23.9470    84.3090    12.5220 h1         1 GOI       0.033700
     63 HASA       -24.4790    82.8020    13.2630 h1         1 GOI       0.033700
     64 HAT        -26.5240    82.8370     8.9860 h1         1 GOI       0.041200
     65 HATA       -25.5240    83.9910     8.0870 h1         1 GOI       0.041200
     66 HAU        -23.6880    80.5120     9.4290 h1         1 GOI       0.041200
     67 HAUA       -25.4090    80.7220     9.7920 h1         1 GOI       0.041200
     68 HAV        -24.1860    84.4860    10.0720 h1         1 GOI       0.034450
     69 HAVA       -25.9090    84.6940    10.4290 h1         1 GOI       0.034450
     70 HAW        -24.0680    81.2170    11.7680 h1         1 GOI       0.034450
     71 HAWA       -23.0680    82.3720    10.8680 h1         1 GOI       0.034450
     72 HAX        -25.0900    79.7190     5.3540 h1         1 GOI       0.036200
     73 HAXA       -24.1620    81.0450     4.6780 h1         1 GOI       0.036200
     74 CAR        -24.8630    81.5940     7.2850 c3         1 GOI       0.169800
     75 HAE        -25.1610    75.7040     1.3930 ha         1 GOI       0.115000
     76 HAR        -25.0070    82.4010     6.5610 h1         1 GOI       0.028700
     77 HARA       -25.8230    81.0490     7.3470 h1         1 GOI       0.028700
@<TRIPOS>BOND
     1     1     2 1   
     2     1     3 1   
     3     1    10 1   
     4     1    38 1   
     5     2    24 1   
     6     3     4 1   
     7     3     5 1   
     8     3    39 1   
     9     4    40 1   
    10     5     6 1   
    11     5     7 1   
    12     5    41 1   
    13     6    42 1   
    14     7     8 1   
    15     7     9 1   
    16     7    43 1   
    17     8    44 1   
    18     9    10 1   
    19     9    11 1   
    20     9    45 1   
    21    11    12 1   
    22    11    46 1   
    23    11    47 1   
    24    12    48 1   
    25    13    15 ar  
    26    13    17 ar  
    27    13    75 1   
    28    14    16 ar  
    29    14    18 ar  
    30    14    49 1   
    31    15    19 ar  
    32    15    50 1   
    33    16    20 ar  
    34    16    51 1   
    35    17    31 ar  
    36    17    52 1   
    37    18    32 ar  
    38    18    53 1   
    39    19    33 ar  
    40    19    54 1   
    41    20    34 ar  
    42    20    55 1   
    43    21    22 2   
    44    21    31 1   
    45    21    56 1   
    46    22    32 1   
    47    22    57 1   
    48    23    30 1   
    49    23    58 1   
    50    23    59 1   
    51    23    74 1   
    52    24    25 1   
    53    24    60 1   
    54    24    61 1   
    55    25    36 1   
    56    25    62 1   
    57    25    63 1   
    58    26    28 1   
    59    26    35 1   
    60    26    64 1   
    61    26    65 1   
    62    27    29 1   
    63    27    35 1   
    64    27    66 1   
    65    27    67 1   
    66    28    36 1   
    67    28    68 1   
    68    28    69 1   
    69    29    36 1   
    70    29    70 1   
    71    29    71 1   
    72    30    37 1   
    73    30    72 1   
    74    30    73 1   
    75    31    33 ar  
    76    32    34 ar  
    77    33    37 1   
    78    34    37 1   
    79    35    74 1   
    80    74    76 1   
    81    74    77 1   
@<TRIPOS>SUBSTRUCTURE
     1 GOI         1 TEMP              0 ****  ****    0 ROOT
