@<TRIPOS>MOLECULE
GOJ
   18    18     1     0     0
SMALL
bcc


@<TRIPOS>ATOM
      1 N1           2.9890     0.0250     0.0340 na         1 GOJ       0.000400
      2 C4           1.2560    -1.1630     0.0230 cc         1 GOJ       0.362200
      3 C5           1.9980     0.9150     0.0240 cd         1 GOJ      -0.065300
      4 N            2.5690    -1.2400     0.0320 nd         1 GOJ      -0.527800
      5 C           -3.6760    -1.0500     0.0130 c3         1 GOJ      -0.097100
      6 O           -1.4470    -0.2120     0.0040 os         1 GOJ      -0.420900
      7 C1          -2.8240     0.1950    -0.0070 c3         1 GOJ       0.145400
      8 C3           0.8260     0.1810     0.0170 cc         1 GOJ      -0.340900
      9 O1          -0.7650     1.9210    -0.0040 o          1 GOJ      -0.554000
     10 H1           3.9770     0.2240     0.0390 hn         1 GOJ       0.325700
     11 H2           0.6550    -2.0590     0.0190 h4         1 GOJ       0.051100
     12 H3           2.1760     1.9780     0.0240 h4         1 GOJ       0.189000
     13 H4          -3.4960    -1.6770    -0.8600 hc         1 GOJ       0.046367
     14 H5          -3.5020    -1.6440     0.9100 hc         1 GOJ       0.046367
     15 H6          -4.7260    -0.7610     0.0040 hc         1 GOJ       0.046367
     16 H7          -3.0240     0.7890    -0.9010 h1         1 GOJ       0.047700
     17 H8          -3.0290     0.8220     0.8630 h1         1 GOJ       0.047700
     18 C2          -0.5210     0.7370     0.0040 c          1 GOJ       0.698700
@<TRIPOS>BOND
     1     1     3 1   
     2     1     4 1   
     3     1    10 1   
     4     2     4 2   
     5     2     8 1   
     6     2    11 1   
     7     3     8 2   
     8     3    12 1   
     9     5     7 1   
    10     5    13 1   
    11     5    14 1   
    12     5    15 1   
    13     6     7 1   
    14     6    18 1   
    15     7    16 1   
    16     7    17 1   
    17     8    18 1   
    18     9    18 2   
@<TRIPOS>SUBSTRUCTURE
     1 GOJ         1 TEMP              0 ****  ****    0 ROOT
