@<TRIPOS>MOLECULE
GOJ
   18    18     1     0     0
SMALL
No Charge or Current Charge


@<TRIPOS>ATOM
      1 N1           3.0420    -0.0160     0.0310 na         1 GOJ       0.000800
      2 C4           1.2270    -1.1180     0.0320 cc         1 GOJ       0.296900
      3 C5           2.0320     0.9560     0.0170 cd         1 GOJ      -0.098000
      4 N            2.5320    -1.3190     0.0400 nd         1 GOJ      -0.527800
      5 C           -3.6930    -1.0800     0.0070 c3         1 GOJ      -0.097100
      6 O           -1.4580    -0.2110     0.0100 os         1 GOJ      -0.444100
      7 C1          -2.8370     0.1960    -0.0010 c3         1 GOJ       0.168600
      8 C3           0.8740     0.2350     0.0170 cc         1 GOJ      -0.275600
      9 O1          -0.7490     1.9620    -0.0070 o          1 GOJ      -0.505000
     10 H1           4.0460     0.1650     0.0340 hn         1 GOJ       0.376000
     11 H2           0.5660    -1.9750     0.0360 h4         1 GOJ       0.051100
     12 H3           2.2200     2.0260     0.0080 h4         1 GOJ       0.171000
     13 H4          -3.4810    -1.6930    -0.8780 hc         1 GOJ       0.046367
     14 H5          -3.4900    -1.6760     0.9040 hc         1 GOJ       0.046367
     15 H6          -4.7590    -0.8220    -0.0010 hc         1 GOJ       0.046367
     16 H7          -3.0650     0.7850    -0.9000 h1         1 GOJ       0.047700
     17 H8          -3.0740     0.8010     0.8840 h1         1 GOJ       0.047700
     18 C2          -0.4960     0.7650     0.0060 c          1 GOJ       0.649700
@<TRIPOS>BOND
     1     1     3 1   
     2     1     4 1   
     3     1    10 1   
     4     2     4 2   
     5     2     8 1   
     6     2    11 1   
     7     3     8 2   
     8     3    12 1   
     9     5     7 1   
    10     5    13 1   
    11     5    14 1   
    12     5    15 1   
    13     6     7 1   
    14     6    18 1   
    15     7    16 1   
    16     7    17 1   
    17     8    18 1   
    18     9    18 2   
@<TRIPOS>SUBSTRUCTURE
     1 GOJ         1 TEMP              0 ****  ****    0 ROOT
