@<TRIPOS>MOLECULE
GOK
   55    58     1     0     0
SMALL
abcg2


@<TRIPOS>ATOM
      1 N1          -7.3590    -2.0710    -0.8420 ns         1 GOK      -0.393400
      2 O3          -7.5210    -0.1620    -2.0370 o          1 GOK      -0.580100
      3 C5          -3.4500     0.5730     0.5930 ca         1 GOK       0.408900
      4 C8          -5.6890    -0.3970    -0.5580 ca         1 GOK      -0.351600
      5 C9          -5.4180     0.9680    -0.4680 ca         1 GOK       0.197900
      6 C14         -1.2820     0.2050     1.6800 c6         1 GOK       0.220300
      7 N15         -2.3580     1.0560     1.2050 nh         1 GOK      -0.753300
      8 C16         -2.0170     2.4680     1.2100 c6         1 GOK       0.220300
      9 C34          6.4810    -0.9840    -0.0480 ca         1 GOK      -0.047200
     10 C2          -6.9260    -0.8550    -1.2270 c          1 GOK       0.644700
     11 O4          -8.3630    -2.6830    -1.5250 oh         1 GOK      -0.417100
     12 N6          -3.5960    -0.7610     0.5220 nb         1 GOK      -0.256500
     13 C7          -4.6930    -1.2200    -0.0390 ca         1 GOK       0.197900
     14 N10         -4.3360     1.4550     0.0940 nb         1 GOK      -0.256500
     15 C13         -0.0370     0.3860     0.8190 c6         1 GOK      -0.100900
     16 C17         -0.7990     2.7190     0.3300 c6         1 GOK      -0.100900
     17 C18          0.3890     1.8540     0.7480 c6         1 GOK      -0.064700
     18 C27          1.5640     2.0740    -0.1970 c3         1 GOK       0.161800
     19 N29          2.7680     1.3950     0.2420 n7         1 GOK      -0.859400
     20 C30          3.8960     1.6470    -0.6470 c3         1 GOK       0.237000
     21 C31          5.0730     0.8000    -0.2990 cc         1 GOK      -0.152400
     22 N32          7.0450     0.1130     0.5370 na         1 GOK      -0.088700
     23 C33          6.1960     1.1750     0.3820 cd         1 GOK      -0.131100
     24 C35          5.2340    -0.5940    -0.5860 ca         1 GOK      -0.093800
     25 C36          4.4510    -1.5450    -1.2490 ca         1 GOK      -0.069000
     26 C37          4.9220    -2.8390    -1.3600 ca         1 GOK      -0.138000
     27 C38          6.1650    -3.2060    -0.8180 ca         1 GOK      -0.095000
     28 C39          6.9610    -2.2880    -0.1580 ca         1 GOK      -0.124000
     29 C44          8.3370     0.1430     1.1770 c3         1 GOK       0.065900
     30 H1          -6.8780    -2.6570    -0.1770 hn         1 GOK       0.336500
     31 H2          -6.1220     1.6910    -0.8660 h4         1 GOK       0.029100
     32 H4          -1.6080    -0.8300     1.6870 h1         1 GOK       0.067700
     33 H5          -2.8700     3.0520     0.8780 h1         1 GOK       0.067700
     34 H6          -1.7950     2.7590     2.2420 h1         1 GOK       0.067700
     35 H7          -9.1800    -2.4740    -1.0520 ho         1 GOK       0.442000
     36 H8          -4.7660    -2.3020    -0.0990 h4         1 GOK       0.029100
     37 H9           0.7590    -0.2320     1.2410 hc         1 GOK       0.052950
     38 H10         -0.2380     0.0090    -0.1900 hc         1 GOK       0.052950
     39 H11         -1.0620     2.5130    -0.7140 hc         1 GOK       0.052950
     40 H12         -0.5330     3.7780     0.3880 hc         1 GOK       0.052950
     41 H13          0.6990     2.1640     1.7540 hc         1 GOK       0.061700
     42 H14          1.2610     1.7820    -1.2170 h1         1 GOK       0.028700
     43 H15          1.7820     3.1460    -0.2410 h1         1 GOK       0.028700
     44 H16          2.6000     0.3960     0.2660 hn         1 GOK       0.412000
     45 H18          3.6290     1.4790    -1.7040 h1         1 GOK       0.033200
     46 H19          4.1660     2.7040    -0.5680 h1         1 GOK       0.033200
     47 H20          6.4630     2.1450     0.7740 h4         1 GOK       0.213000
     48 H21          3.4910    -1.2750    -1.6740 ha         1 GOK       0.109000
     49 H22          4.3280    -3.5850    -1.8720 ha         1 GOK       0.110000
     50 H23          6.5070    -4.2280    -0.9200 ha         1 GOK       0.109000
     51 H24          7.9190    -2.5770     0.2550 ha         1 GOK       0.113000
     52 H25          9.1320    -0.0920     0.4690 h1         1 GOK       0.048700
     53 H26          8.5140     1.1390     1.5740 h1         1 GOK       0.048700
     54 H27          8.3810    -0.5690     2.0010 h1         1 GOK       0.048700
     55 H3          -1.0590     0.4920     2.7130 h1         1 GOK       0.067700
@<TRIPOS>BOND
     1     1    10 1   
     2     1    11 1   
     3     1    30 1   
     4     2    10 2   
     5     3     7 1   
     6     3    12 ar  
     7     3    14 ar  
     8     4     5 ar  
     9     4    10 1   
    10     4    13 ar  
    11     5    14 ar  
    12     5    31 1   
    13     6     7 1   
    14     6    15 1   
    15     6    32 1   
    16     6    55 1   
    17     7     8 1   
    18     8    16 1   
    19     8    33 1   
    20     8    34 1   
    21     9    22 1   
    22     9    24 ar  
    23     9    28 ar  
    24    11    35 1   
    25    12    13 ar  
    26    13    36 1   
    27    15    17 1   
    28    15    37 1   
    29    15    38 1   
    30    16    17 1   
    31    16    39 1   
    32    16    40 1   
    33    17    18 1   
    34    17    41 1   
    35    18    19 1   
    36    18    42 1   
    37    18    43 1   
    38    19    20 1   
    39    19    44 1   
    40    20    21 1   
    41    20    45 1   
    42    20    46 1   
    43    21    23 2   
    44    21    24 1   
    45    22    23 1   
    46    22    29 1   
    47    23    47 1   
    48    24    25 ar  
    49    25    26 ar  
    50    25    48 1   
    51    26    27 ar  
    52    26    49 1   
    53    27    28 ar  
    54    27    50 1   
    55    28    51 1   
    56    29    52 1   
    57    29    53 1   
    58    29    54 1   
@<TRIPOS>SUBSTRUCTURE
     1 GOK         1 TEMP              0 ****  ****    0 ROOT
