@<TRIPOS>MOLECULE
GOK
   55    58     1     0     0
SMALL
No Charge or Current Charge


@<TRIPOS>ATOM
      1 N1          -7.9440    -2.1150    -0.0970 ns         1 GOK      -0.393400
      2 O3          -8.6100     0.0700    -0.1830 o          1 GOK      -0.580100
      3 C5          -3.7000     0.5060     0.1700 ca         1 GOK       0.408900
      4 C8          -6.2710    -0.3230    -0.0090 ca         1 GOK      -0.351600
      5 C9          -5.9300     1.0400    -0.0390 ca         1 GOK       0.197900
      6 C14         -1.2440    -0.0000     0.6500 c6         1 GOK       0.220300
      7 N15         -2.3450     0.9420     0.2590 nh         1 GOK      -0.753300
      8 C16         -2.0040     2.3850     0.4910 c6         1 GOK       0.220300
      9 C34          6.6610    -0.9640     0.2140 ca         1 GOK      -0.047200
     10 C2          -7.7030    -0.7470    -0.1080 c          1 GOK       0.644700
     11 O4          -9.2490    -2.6480    -0.4370 oh         1 GOK      -0.417100
     12 N6          -3.9300    -0.8230     0.2070 nb         1 GOK      -0.256500
     13 C7          -5.2080    -1.2350     0.1190 ca         1 GOK       0.197900
     14 N10         -4.6530     1.4540     0.0490 nb         1 GOK      -0.256500
     15 C13          0.0980     0.3750    -0.0220 c6         1 GOK      -0.100900
     16 C17         -0.6660     2.7700    -0.1840 c6         1 GOK      -0.100900
     17 C18          0.4950     1.8480     0.2650 c6         1 GOK      -0.064700
     18 C27          1.8320     2.2550    -0.4190 c3         1 GOK       0.161800
     19 N29          2.9810     1.4870     0.0920 n7         1 GOK      -0.859400
     20 C30          4.2700     1.7970    -0.5400 c3         1 GOK       0.237000
     21 C31          5.3190     0.8550    -0.0180 cc         1 GOK      -0.152400
     22 N32          6.9970    -0.0800     1.2250 na         1 GOK      -0.088700
     23 C33          6.1590     1.0470     1.0770 cd         1 GOK      -0.131100
     24 C35          5.6570    -0.4380    -0.5530 ca         1 GOK      -0.093800
     25 C36          5.1210    -1.1310    -1.6490 ca         1 GOK      -0.069000
     26 C37          5.6500    -2.4030    -1.9500 ca         1 GOK      -0.138000
     27 C38          6.6890    -2.9500    -1.1610 ca         1 GOK      -0.095000
     28 C39          7.2060    -2.2290    -0.0640 ca         1 GOK      -0.124000
     29 C44          8.0350    -0.3280     2.2370 c3         1 GOK       0.065900
     30 H1          -7.1620    -2.7590    -0.1870 hn         1 GOK       0.336500
     31 H2          -6.6840     1.8200    -0.1350 h4         1 GOK       0.029100
     32 H4          -1.4710    -1.0370     0.3630 h1         1 GOK       0.067700
     33 H5          -2.7740     3.0590     0.0910 h1         1 GOK       0.067700
     34 H6          -1.9350     2.5830     1.5720 h1         1 GOK       0.067700
     35 H7          -9.4460    -3.2700     0.3030 ho         1 GOK       0.442000
     36 H8          -5.3630    -2.3120     0.1550 h4         1 GOK       0.029100
     37 H9           0.8780    -0.3100     0.3370 hc         1 GOK       0.052950
     38 H10          0.0170     0.2140    -1.1060 hc         1 GOK       0.052950
     39 H11         -0.7840     2.7190    -1.2750 hc         1 GOK       0.052950
     40 H12         -0.4290     3.8160     0.0540 hc         1 GOK       0.052950
     41 H13          0.6430     1.9750     1.3470 hc         1 GOK       0.061700
     42 H14          1.7280     2.1090    -1.5030 h1         1 GOK       0.028700
     43 H15          1.9970     3.3280    -0.2450 h1         1 GOK       0.028700
     44 H16          2.7980     0.4930    -0.0760 hn         1 GOK       0.412000
     45 H18          4.2040     1.6890    -1.6310 h1         1 GOK       0.033200
     46 H19          4.5690     2.8320    -0.3240 h1         1 GOK       0.033200
     47 H20          6.2160     1.8940     1.7540 h4         1 GOK       0.213000
     48 H21          4.3230    -0.7020    -2.2500 ha         1 GOK       0.109000
     49 H22          5.2570    -2.9660    -2.7940 ha         1 GOK       0.110000
     50 H23          7.0910    -3.9330    -1.4000 ha         1 GOK       0.109000
     51 H24          8.0030    -2.6460     0.5460 ha         1 GOK       0.113000
     52 H25          9.0040    -0.4700     1.7430 h1         1 GOK       0.048700
     53 H26          8.0990     0.5280     2.9200 h1         1 GOK       0.048700
     54 H27          7.7820    -1.2280     2.8100 h1         1 GOK       0.048700
     55 H3          -1.1160     0.0080     1.7430 h1         1 GOK       0.067700
@<TRIPOS>BOND
     1     1    10 1   
     2     1    11 1   
     3     1    30 1   
     4     2    10 2   
     5     3     7 1   
     6     3    12 ar  
     7     3    14 ar  
     8     4     5 ar  
     9     4    10 1   
    10     4    13 ar  
    11     5    14 ar  
    12     5    31 1   
    13     6     7 1   
    14     6    15 1   
    15     6    32 1   
    16     6    55 1   
    17     7     8 1   
    18     8    16 1   
    19     8    33 1   
    20     8    34 1   
    21     9    22 1   
    22     9    24 ar  
    23     9    28 ar  
    24    11    35 1   
    25    12    13 ar  
    26    13    36 1   
    27    15    17 1   
    28    15    37 1   
    29    15    38 1   
    30    16    17 1   
    31    16    39 1   
    32    16    40 1   
    33    17    18 1   
    34    17    41 1   
    35    18    19 1   
    36    18    42 1   
    37    18    43 1   
    38    19    20 1   
    39    19    44 1   
    40    20    21 1   
    41    20    45 1   
    42    20    46 1   
    43    21    23 2   
    44    21    24 1   
    45    22    23 1   
    46    22    29 1   
    47    23    47 1   
    48    24    25 ar  
    49    25    26 ar  
    50    25    48 1   
    51    26    27 ar  
    52    26    49 1   
    53    27    28 ar  
    54    27    50 1   
    55    28    51 1   
    56    29    52 1   
    57    29    53 1   
    58    29    54 1   
@<TRIPOS>SUBSTRUCTURE
     1 GOK         1 TEMP              0 ****  ****    0 ROOT
