@<TRIPOS>MOLECULE
GOL
   14    13     1     0     0
SMALL
No Charge or Current Charge


@<TRIPOS>ATOM
      1 C1          29.5790     2.0700    30.9920 c3         1 GOL       0.143100
      2 O1          28.1960     1.7540    30.7330 oh         1 GOL      -0.715500
      3 C2          30.2150     2.8860    29.8260 c3         1 GOL       0.169300
      4 O2          29.5980     4.1820    29.6970 oh         1 GOL      -0.648000
      5 C3          31.7400     3.0970    30.0250 c3         1 GOL       0.143100
      6 O3          32.2600     3.9580    28.9930 oh         1 GOL      -0.715500
      7 H11         29.6720     2.6450    31.9230 h1         1 GOL       0.025450
      8 H12         30.1530     1.1420    31.1230 h1         1 GOL       0.025450
      9 HO1         27.8470     1.3040    31.5390 ho         1 GOL       0.506000
     10 H2          30.0790     2.3140    28.8970 h1         1 GOL       0.054700
     11 HO2         30.2840     4.7210    29.2390 ho         1 GOL       0.455000
     12 H31         31.9200     3.5370    31.0160 h1         1 GOL       0.025450
     13 H32         32.2410     2.1200    29.9980 h1         1 GOL       0.025450
     14 HO3         33.2390     4.0010    29.1170 ho         1 GOL       0.506000
@<TRIPOS>BOND
     1     1     2 1   
     2     1     3 1   
     3     1     7 1   
     4     1     8 1   
     5     2     9 1   
     6     3     4 1   
     7     3     5 1   
     8     3    10 1   
     9     4    11 1   
    10     5     6 1   
    11     5    12 1   
    12     5    13 1   
    13     6    14 1   
@<TRIPOS>SUBSTRUCTURE
     1 GOL         1 TEMP              0 ****  ****    0 ROOT
