@<TRIPOS>MOLECULE
GOL
   14    13     1     0     0
SMALL
abcg2


@<TRIPOS>ATOM
      1 C1          29.6300     2.1030    30.9780 c3         1 GOL       0.143100
      2 O1          28.2700     1.8660    30.7010 oh         1 GOL      -0.715500
      3 C2          30.2390     2.9040    29.8470 c3         1 GOL       0.169300
      4 O2          29.6160     4.1680    29.8050 oh         1 GOL      -0.648000
      5 C3          31.7400     3.0350    30.0470 c3         1 GOL       0.143100
      6 O3          32.2540     3.7870    28.9690 oh         1 GOL      -0.715500
      7 H11         29.7650     2.6510    31.9200 h1         1 GOL       0.025450
      8 H12         30.1920     1.1640    31.0710 h1         1 GOL       0.025450
      9 HO1         27.9040     1.3490    31.4230 ho         1 GOL       0.506000
     10 H2          30.0680     2.3540    28.9070 h1         1 GOL       0.054700
     11 HO2         30.0830     4.6990    29.1510 ho         1 GOL       0.455000
     12 H31         31.9380     3.5240    31.0090 h1         1 GOL       0.025450
     13 H32         32.1890     2.0340    30.0910 h1         1 GOL       0.025450
     14 HO3         33.1350     4.0920    29.2000 ho         1 GOL       0.506000
@<TRIPOS>BOND
     1     1     2 1   
     2     1     3 1   
     3     1     7 1   
     4     1     8 1   
     5     2     9 1   
     6     3     4 1   
     7     3     5 1   
     8     3    10 1   
     9     4    11 1   
    10     5     6 1   
    11     5    12 1   
    12     5    13 1   
    13     6    14 1   
@<TRIPOS>SUBSTRUCTURE
     1 GOL         1 TEMP              0 ****  ****    0 ROOT
