@<TRIPOS>MOLECULE
GON
   56    59     1     0     0
SMALL
abcg2


@<TRIPOS>ATOM
      1 C13          2.0030     1.8870     1.0230 ca         1 GON      -0.019000
      2 C15          4.2220     1.1210     0.2070 cc         1 GON      -0.082000
      3 C20          4.7020    -1.4050     0.0790 ca         1 GON      -0.004000
      4 C21          3.5130    -1.9060     0.6130 ca         1 GON      -0.101500
      5 C22          3.1970    -3.2510     0.4980 ca         1 GON      -0.109000
      6 C24          5.2560    -3.6390    -0.6700 ca         1 GON      -0.109000
      7 C26          2.1230     0.7690    -1.0950 ca         1 GON       0.214100
      8 C28          0.7490     0.8980    -1.2260 ca         1 GON      -0.199000
      9 C02         -7.2540    -1.0480     0.5300 c          1 GON       0.603100
     10 C04         -5.9970    -1.3940    -0.2620 c6         1 GON      -0.144700
     11 C05         -4.7390    -1.3750     0.6000 c6         1 GON      -0.062400
     12 C06         -4.2770     0.0370     0.9330 c6         1 GON       0.164300
     13 C08         -3.5820     2.1600     0.0220 c3         1 GON       0.169800
     14 C09         -2.1560     2.1850     0.5260 c3         1 GON       0.165600
     15 C11         -0.0020     1.5220    -0.2320 ca         1 GON       0.197100
     16 C12          0.6300     2.0290     0.9040 ca         1 GON      -0.248000
     17 C14          2.7730     1.2600     0.0490 ca         1 GON      -0.184000
     18 C18          6.3470     0.5550     0.3850 cd         1 GON       0.251900
     19 C19          5.0580     0.0110     0.2010 cd         1 GON      -0.161000
     20 C23          4.0670    -4.1250    -0.1430 ca         1 GON      -0.109000
     21 C25          5.5690    -2.2920    -0.5630 ca         1 GON      -0.101500
     22 C29         -5.3140     0.9080    -1.0390 c6         1 GON       0.164300
     23 C30         -5.7730    -0.4750    -1.4690 c6         1 GON      -0.062400
     24 N01         -8.3860    -1.0000    -0.1930 nt         1 GON      -0.612000
     25 N07         -4.0860     0.8340    -0.2680 n3         1 GON      -0.708600
     26 N16          5.0290     2.1840     0.3880 na         1 GON       0.006800
     27 N17          6.3100     1.8670     0.5020 nc         1 GON      -0.516800
     28 O10         -1.3230     1.5920    -0.4560 os         1 GON      -0.322100
     29 O27          2.7800     0.1680    -2.1010 oh         1 GON      -0.526100
     30 H1           2.4900     2.2630     1.9130 ha         1 GON       0.113000
     31 H2           2.8340    -1.2450     1.1360 ha         1 GON       0.115500
     32 H3           2.2710    -3.6200     0.9200 ha         1 GON       0.112000
     33 H4           5.9420    -4.3090    -1.1730 ha         1 GON       0.112000
     34 H5           0.2560     0.5140    -2.1110 ha         1 GON       0.148000
     35 H6          -6.1520    -2.4130    -0.6370 hc         1 GON       0.061700
     36 H7          -4.8840    -1.9370     1.5230 hc         1 GON       0.053200
     37 H8          -3.9440    -1.8810     0.0450 hc         1 GON       0.053200
     38 H9          -4.9970     0.5170     1.6150 h1         1 GON       0.037200
     39 H10         -3.3320    -0.0320     1.4750 h1         1 GON       0.037200
     40 H11         -4.1980     2.6880     0.7710 h1         1 GON       0.042700
     41 H12         -3.6360     2.7570    -0.8920 h1         1 GON       0.042700
     42 H13         -1.8690     3.2280     0.7010 h1         1 GON       0.037200
     43 H14         -2.0550     1.6570     1.4800 h1         1 GON       0.037200
     44 H15          0.0830     2.5200     1.6960 ha         1 GON       0.122000
     45 H16          7.2840     0.0240     0.4590 h4         1 GON       0.041100
     46 H17          3.8200    -5.1750    -0.2280 ha         1 GON       0.112000
     47 H18          6.4910    -1.9240    -0.9950 ha         1 GON       0.115500
     48 H19         -5.1330     1.5190    -1.9270 h1         1 GON       0.037200
     49 H20         -6.1200     1.4110    -0.4740 h1         1 GON       0.037200
     50 H21         -5.0020    -0.9220    -2.1000 hc         1 GON       0.053200
     51 H22         -6.6650    -0.3890    -2.0910 hc         1 GON       0.053200
     52 H23         -8.4130    -1.2500    -1.1660 hn         1 GON       0.311000
     53 H24         -9.2700    -0.8410     0.2640 hn         1 GON       0.311000
     54 H26          4.7470     3.1520     0.4120 hn         1 GON       0.374000
     55 H27          3.7330     0.1710    -1.9440 ho         1 GON       0.484000
     56 O03         -7.2480    -0.8500     1.7370 o          1 GON      -0.608100
@<TRIPOS>BOND
     1     1    16 ar  
     2     1    17 ar  
     3     1    30 1   
     4     2    17 1   
     5     2    19 2   
     6     2    26 1   
     7     3     4 ar  
     8     3    19 1   
     9     3    21 ar  
    10     4     5 ar  
    11     4    31 1   
    12     5    20 ar  
    13     5    32 1   
    14     6    20 ar  
    15     6    21 ar  
    16     6    33 1   
    17     7     8 ar  
    18     7    17 ar  
    19     7    29 1   
    20     8    15 ar  
    21     8    34 1   
    22     9    10 1   
    23     9    24 1   
    24     9    56 2   
    25    10    11 1   
    26    10    23 1   
    27    10    35 1   
    28    11    12 1   
    29    11    36 1   
    30    11    37 1   
    31    12    25 1   
    32    12    38 1   
    33    12    39 1   
    34    13    14 1   
    35    13    25 1   
    36    13    40 1   
    37    13    41 1   
    38    14    28 1   
    39    14    42 1   
    40    14    43 1   
    41    15    16 ar  
    42    15    28 1   
    43    16    44 1   
    44    18    19 1   
    45    18    27 2   
    46    18    45 1   
    47    20    46 1   
    48    21    47 1   
    49    22    23 1   
    50    22    25 1   
    51    22    48 1   
    52    22    49 1   
    53    23    50 1   
    54    23    51 1   
    55    24    52 1   
    56    24    53 1   
    57    26    27 1   
    58    26    54 1   
    59    29    55 1   
@<TRIPOS>SUBSTRUCTURE
     1 GON         1 TEMP              0 ****  ****    0 ROOT
