@<TRIPOS>MOLECULE
GON
   56    59     1     0     0
SMALL
No Charge or Current Charge


@<TRIPOS>ATOM
      1 C13          2.1340     1.9070     1.0780 ca         1 GON      -0.019000
      2 C15          4.3400     1.1520     0.2390 cc         1 GON      -0.082000
      3 C20          4.6280    -1.4210     0.0670 ca         1 GON      -0.004000
      4 C21          3.3100    -1.8240     0.3840 ca         1 GON      -0.101500
      5 C22          2.9250    -3.1730     0.2880 ca         1 GON      -0.109000
      6 C24          5.1690    -3.7640    -0.4180 ca         1 GON      -0.109000
      7 C26          2.2500     0.8780    -1.1180 ca         1 GON       0.214100
      8 C28          0.8690     1.0450    -1.2730 ca         1 GON      -0.199000
      9 C02         -7.2940    -1.1370     0.5070 c          1 GON       0.603100
     10 C04         -6.0480    -1.2780    -0.3970 c6         1 GON      -0.144700
     11 C05         -4.6990    -1.3560     0.3650 c6         1 GON      -0.062400
     12 C06         -4.2080     0.0520     0.7930 c6         1 GON       0.164300
     13 C08         -3.5780     2.3330    -0.0060 c3         1 GON       0.169800
     14 C09         -2.1200     2.3480     0.5310 c3         1 GON       0.165600
     15 C11          0.1090     1.6360    -0.2560 ca         1 GON       0.197100
     16 C12          0.7470     2.0720     0.9240 ca         1 GON      -0.248000
     17 C14          2.8950     1.2960     0.0640 ca         1 GON      -0.184000
     18 C18          6.4210     0.4090     0.3400 cd         1 GON       0.251900
     19 C19          5.0740    -0.0090     0.1620 cd         1 GON      -0.161000
     20 C23          3.8530    -4.1430    -0.1170 ca         1 GON      -0.109000
     21 C25          5.5540    -2.4150    -0.3210 ca         1 GON      -0.101500
     22 C29         -5.4750     1.1270    -1.0320 c6         1 GON       0.164300
     23 C30         -5.9960    -0.2390    -1.5450 c6         1 GON      -0.062400
     24 N01         -8.3050    -2.0030     0.2770 nt         1 GON      -0.612000
     25 N07         -4.1480     0.9990    -0.3620 n3         1 GON      -0.708600
     26 N16          5.2590     2.1690     0.4550 na         1 GON       0.006800
     27 N17          6.5640     1.7130     0.5080 nc         1 GON      -0.516800
     28 O10         -1.2470     1.7720    -0.4620 os         1 GON      -0.322100
     29 O27          2.9720     0.3200    -2.1260 oh         1 GON      -0.526100
     30 H1           2.6180     2.2450     1.9920 ha         1 GON       0.113000
     31 H2           2.5770    -1.1080     0.7390 ha         1 GON       0.115500
     32 H3           1.9080    -3.4650     0.5380 ha         1 GON       0.112000
     33 H4           5.8930    -4.5140    -0.7290 ha         1 GON       0.112000
     34 H5           0.3830     0.7170    -2.1870 ha         1 GON       0.148000
     35 H6          -6.1790    -2.2440    -0.9050 hc         1 GON       0.061700
     36 H7          -4.7880    -2.0100     1.2420 hc         1 GON       0.053200
     37 H8          -3.9390    -1.8110    -0.2860 hc         1 GON       0.053200
     38 H9          -4.8710     0.4480     1.5750 h1         1 GON       0.037200
     39 H10         -3.2150    -0.0670     1.2490 h1         1 GON       0.037200
     40 H11         -4.2170     2.8130     0.7480 h1         1 GON       0.042700
     41 H12         -3.6010     2.9840    -0.8910 h1         1 GON       0.042700
     42 H13         -1.8320     3.3860     0.7370 h1         1 GON       0.037200
     43 H14         -2.0650     1.7870     1.4720 h1         1 GON       0.037200
     44 H15          0.1880     2.5400     1.7290 ha         1 GON       0.122000
     45 H16          7.3080    -0.2120     0.3760 h4         1 GON       0.041100
     46 H17          3.5550    -5.1870    -0.1910 ha         1 GON       0.112000
     47 H18          6.5770    -2.1480    -0.5700 ha         1 GON       0.115500
     48 H19         -5.4030     1.8130    -1.8890 h1         1 GON       0.037200
     49 H20         -6.2110     1.5590    -0.3380 h1         1 GON       0.037200
     50 H21         -5.3260    -0.5990    -2.3380 hc         1 GON       0.053200
     51 H22         -6.9870    -0.1190    -2.0040 hc         1 GON       0.053200
     52 H23         -8.2200    -2.7020    -0.4460 hn         1 GON       0.311000
     53 H24         -9.1430    -1.9410     0.8360 hn         1 GON       0.311000
     54 H26          5.0390     3.1590     0.5500 hn         1 GON       0.374000
     55 H27          3.8810     0.2030    -1.7770 ho         1 GON       0.484000
     56 O03         -7.4090    -0.2860     1.3720 o          1 GON      -0.608100
@<TRIPOS>BOND
     1     1    16 ar  
     2     1    17 ar  
     3     1    30 1   
     4     2    17 1   
     5     2    19 2   
     6     2    26 1   
     7     3     4 ar  
     8     3    19 1   
     9     3    21 ar  
    10     4     5 ar  
    11     4    31 1   
    12     5    20 ar  
    13     5    32 1   
    14     6    20 ar  
    15     6    21 ar  
    16     6    33 1   
    17     7     8 ar  
    18     7    17 ar  
    19     7    29 1   
    20     8    15 ar  
    21     8    34 1   
    22     9    10 1   
    23     9    24 1   
    24     9    56 2   
    25    10    11 1   
    26    10    23 1   
    27    10    35 1   
    28    11    12 1   
    29    11    36 1   
    30    11    37 1   
    31    12    25 1   
    32    12    38 1   
    33    12    39 1   
    34    13    14 1   
    35    13    25 1   
    36    13    40 1   
    37    13    41 1   
    38    14    28 1   
    39    14    42 1   
    40    14    43 1   
    41    15    16 ar  
    42    15    28 1   
    43    16    44 1   
    44    18    19 1   
    45    18    27 2   
    46    18    45 1   
    47    20    46 1   
    48    21    47 1   
    49    22    23 1   
    50    22    25 1   
    51    22    48 1   
    52    22    49 1   
    53    23    50 1   
    54    23    51 1   
    55    24    52 1   
    56    24    53 1   
    57    26    27 1   
    58    26    54 1   
    59    29    55 1   
@<TRIPOS>SUBSTRUCTURE
     1 GON         1 TEMP              0 ****  ****    0 ROOT
