@<TRIPOS>MOLECULE
GOO
   24    24     1     0     0
SMALL
bcc


@<TRIPOS>ATOM
      1 C7           3.1530    -0.6570    -0.5010 c3         1 GOO       0.124700
      2 O6           2.3070     0.1560     0.2760 os         1 GOO      -0.412600
      3 C1           0.9760     0.1740    -0.1700 c5         1 GOO       0.134100
      4 C2           0.1820    -1.1270     0.0690 c5         1 GOO       0.129100
      5 O2          -0.0240    -1.7770    -1.1600 oh         1 GOO      -0.581800
      6 C3          -1.1280    -0.6570     0.7470 c5         1 GOO       0.059100
      7 O3          -2.2140    -1.4350     0.3120 oh         1 GOO      -0.595800
      8 C4          -1.2430     0.8300     0.4020 c5         1 GOO       0.123100
      9 O4          -1.6540     1.0180    -0.9290 oh         1 GOO      -0.562800
     10 C5           0.2050     1.2680     0.5660 c5         1 GOO       0.170500
     11 N5           0.4930     2.5900     0.0500 n8         1 GOO      -0.857800
     12 H7           4.1740    -0.5050    -0.1530 h1         1 GOO       0.033033
     13 H7A          2.9170    -1.7230    -0.4040 h1         1 GOO       0.033033
     14 H7B          3.1050    -0.3960    -1.5640 h1         1 GOO       0.033033
     15 H1           0.9430     0.3910    -1.2480 h1         1 GOO       0.091700
     16 H2           0.7310    -1.7770     0.7640 h1         1 GOO       0.043700
     17 HO2         -0.6100    -2.5250    -1.0090 ho         1 GOO       0.419000
     18 H3          -0.9930    -0.7390     1.8320 h1         1 GOO       0.041700
     19 HO3         -2.9380    -1.3340     0.9390 ho         1 GOO       0.413000
     20 H4          -1.9110     1.3590     1.0990 h1         1 GOO       0.038700
     21 HO4         -2.3320     0.3580    -1.1150 ho         1 GOO       0.411000
     22 H5           0.4340     1.1680     1.6400 h1         1 GOO       0.023700
     23 HN5          0.0010     3.2820     0.6030 hn         1 GOO       0.343800
     24 HN5A         1.4760     2.7880     0.1920 hn         1 GOO       0.343800
@<TRIPOS>BOND
     1     1     2 1   
     2     1    12 1   
     3     1    13 1   
     4     1    14 1   
     5     2     3 1   
     6     3     4 1   
     7     3    10 1   
     8     3    15 1   
     9     4     5 1   
    10     4     6 1   
    11     4    16 1   
    12     5    17 1   
    13     6     7 1   
    14     6     8 1   
    15     6    18 1   
    16     7    19 1   
    17     8     9 1   
    18     8    10 1   
    19     8    20 1   
    20     9    21 1   
    21    10    11 1   
    22    10    22 1   
    23    11    23 1   
    24    11    24 1   
@<TRIPOS>SUBSTRUCTURE
     1 GOO         1 TEMP              0 ****  ****    0 ROOT
