@<TRIPOS>MOLECULE
GOO
   24    24     1     0     0
SMALL
No Charge or Current Charge


@<TRIPOS>ATOM
      1 C7           3.2010    -0.7010    -0.6300 c3         1 GOO       0.147900
      2 O6           2.3550     0.2410     0.0550 os         1 GOO      -0.459000
      3 C1           0.9330     0.2240    -0.2740 c5         1 GOO       0.157300
      4 C2           0.2690    -1.1040     0.2370 c5         1 GOO       0.152300
      5 O2           0.1710    -2.1160    -0.7690 oh         1 GOO      -0.704000
      6 C3          -1.1740    -0.6720     0.6990 c5         1 GOO       0.082300
      7 O3          -2.2080    -1.4440     0.0500 oh         1 GOO      -0.658000
      8 C4          -1.2820     0.8530     0.3570 c5         1 GOO       0.146300
      9 O4          -1.7550     1.0330    -0.9880 oh         1 GOO      -0.685000
     10 C5           0.2050     1.3070     0.5820 c5         1 GOO       0.170500
     11 N5           0.5190     2.7130     0.2100 n8         1 GOO      -0.968200
     12 H7           4.2500    -0.5450    -0.3490 h1         1 GOO       0.033033
     13 H7A          2.9330    -1.7340    -0.3730 h1         1 GOO       0.033033
     14 H7B          3.1170    -0.5800    -1.7180 h1         1 GOO       0.033033
     15 H1           0.7870     0.3820    -1.3520 h1         1 GOO       0.091700
     16 H2           0.8220    -1.4920     1.1040 h1         1 GOO       0.043700
     17 HO2         -0.8090    -2.2700    -0.8100 ho         1 GOO       0.518000
     18 H3          -1.2450    -0.8030     1.7880 h1         1 GOO       0.041700
     19 HO3         -2.9640    -1.5130     0.6810 ho         1 GOO       0.452000
     20 H4          -1.9570     1.3600     1.0600 h1         1 GOO       0.038700
     21 HO4         -2.2350     0.1930    -1.1850 ho         1 GOO       0.510000
     22 H5           0.4790     1.1970     1.6410 h1         1 GOO       0.023700
     23 HN5          0.1100     3.3460     0.9060 hn         1 GOO       0.399000
     24 HN5A         1.5310     2.8560     0.3150 hn         1 GOO       0.399000
@<TRIPOS>BOND
     1     1     2 1   
     2     1    12 1   
     3     1    13 1   
     4     1    14 1   
     5     2     3 1   
     6     3     4 1   
     7     3    10 1   
     8     3    15 1   
     9     4     5 1   
    10     4     6 1   
    11     4    16 1   
    12     5    17 1   
    13     6     7 1   
    14     6     8 1   
    15     6    18 1   
    16     7    19 1   
    17     8     9 1   
    18     8    10 1   
    19     8    20 1   
    20     9    21 1   
    21    10    11 1   
    22    10    22 1   
    23    11    23 1   
    24    11    24 1   
@<TRIPOS>SUBSTRUCTURE
     1 GOO         1 TEMP              0 ****  ****    0 ROOT
