@<TRIPOS>MOLECULE
GOP
   42    41     1     0     0
SMALL
abcg2


@<TRIPOS>ATOM
      1 OAN         -7.1740     0.7070    -0.2090 oh         1 GOP      -0.711000
      2 CAM         -5.9520     0.9370     0.4550 c3         1 GOP       0.125600
      3 CAL         -4.8330     0.2670    -0.3270 c3         1 GOP       0.135300
      4 OAT         -4.7690     0.7470    -1.6530 oh         1 GOP      -0.694000
      5 CAK         -3.4800     0.4300     0.3880 c3         1 GOP       0.120300
      6 OAS         -3.5490    -0.0430     1.7160 oh         1 GOP      -0.712000
      7 CAJ         -2.3260    -0.2030    -0.3940 c3         1 GOP       0.128300
      8 OAR         -2.5420    -1.5800    -0.6050 oh         1 GOP      -0.733000
      9 CAI         -0.9670    -0.0000     0.3110 c3         1 GOP       0.138300
     10 OAQ         -0.7850    -1.0350     1.2480 oh         1 GOP      -0.801000
     11 CAH          0.1670     0.0460    -0.7110 c3         1 GOP       0.147800
     12 N            1.4630     0.3060    -0.1030 n7         1 GOP      -0.897400
     13 CA           2.5290    -0.6060    -0.4550 c3         1 GOP       0.037500
     14 C            2.3540    -2.0730     0.0150 c          1 GOP       0.700000
     15 O            1.4140    -2.3400     0.8090 o          1 GOP      -0.716000
     16 CB           3.8630    -0.0670     0.0680 c3         1 GOP      -0.046400
     17 CG           4.2160     1.2890    -0.5270 c3         1 GOP      -0.155400
     18 CD           5.5340     1.8360    -0.0240 c          1 GOP       0.599100
     19 OE1          6.4880     1.1150     0.2380 o          1 GOP      -0.615100
     20 NE2          5.5860     3.1730     0.0890 nt         1 GOP      -0.623000
     21 OXT          3.1780    -2.8940    -0.4150 o          1 GOP      -0.716000
     22 H1          -7.8820     1.0140     0.3650 ho         1 GOP       0.490000
     23 H2          -5.7360     2.0140     0.5390 h1         1 GOP       0.024200
     24 H3          -5.9670     0.5370     1.4740 h1         1 GOP       0.024200
     25 H4          -5.0590    -0.8020    -0.4110 h1         1 GOP       0.096700
     26 H5          -4.5960     1.6950    -1.6260 ho         1 GOP       0.486000
     27 H6          -3.2670     1.5050     0.4690 h1         1 GOP       0.054700
     28 H7          -3.6500    -1.0010     1.6910 ho         1 GOP       0.513000
     29 H8          -2.2850     0.2890    -1.3710 h1         1 GOP       0.063700
     30 H9          -2.0340    -2.0190     0.0950 ho         1 GOP       0.534000
     31 H10         -0.9840     0.9720     0.8260 h1         1 GOP       0.033700
     32 H11          0.0930    -1.4810     1.0840 ho         1 GOP       0.598000
     33 H12          0.1720    -0.8970    -1.2720 h1         1 GOP       0.037700
     34 H13         -0.0720     0.8290    -1.4400 h1         1 GOP       0.037700
     35 H14          1.3890     0.3710     0.9030 hn         1 GOP       0.419000
     36 H16          2.5950    -0.6320    -1.5500 h1         1 GOP       0.046700
     37 H17          3.8180     0.0080     1.1600 hc         1 GOP       0.059200
     38 H18          4.6490    -0.7850    -0.1620 hc         1 GOP       0.059200
     39 H19          4.3010     1.1960    -1.6160 hc         1 GOP       0.055200
     40 H20          3.4080     2.0010    -0.3490 hc         1 GOP       0.055200
     41 H21          4.7990     3.7550    -0.1370 hn         1 GOP       0.300500
     42 H22          6.4400     3.6330     0.3600 hn         1 GOP       0.300500
@<TRIPOS>BOND
     1     1     2 1   
     2     1    22 1   
     3     2     3 1   
     4     2    23 1   
     5     2    24 1   
     6     3     4 1   
     7     3     5 1   
     8     3    25 1   
     9     4    26 1   
    10     5     6 1   
    11     5     7 1   
    12     5    27 1   
    13     6    28 1   
    14     7     8 1   
    15     7     9 1   
    16     7    29 1   
    17     8    30 1   
    18     9    10 1   
    19     9    11 1   
    20     9    31 1   
    21    10    32 1   
    22    11    12 1   
    23    11    33 1   
    24    11    34 1   
    25    12    13 1   
    26    12    35 1   
    27    13    14 1   
    28    13    16 1   
    29    13    36 1   
    30    14    15 1   
    31    14    21 1   
    32    16    17 1   
    33    16    37 1   
    34    16    38 1   
    35    17    18 1   
    36    17    39 1   
    37    17    40 1   
    38    18    19 2   
    39    18    20 1   
    40    20    41 1   
    41    20    42 1   
@<TRIPOS>SUBSTRUCTURE
     1 GOP         1 TEMP              0 ****  ****    0 ROOT
