@<TRIPOS>MOLECULE
GOP
   42    41     1     0     0
SMALL
No Charge or Current Charge


@<TRIPOS>ATOM
      1 OAN         -7.3360     0.8430    -0.0860 oh         1 GOP      -0.711000
      2 CAM         -6.0950     0.7520     0.6420 c3         1 GOP       0.125600
      3 CAL         -4.9530     0.3290    -0.3200 c3         1 GOP       0.135300
      4 OAT         -5.0520     1.1720    -1.4830 oh         1 GOP      -0.694000
      5 CAK         -3.5330     0.4370     0.3230 c3         1 GOP       0.120300
      6 OAS         -3.4550    -0.3330     1.5390 oh         1 GOP      -0.712000
      7 CAJ         -2.3710    -0.0120    -0.6290 c3         1 GOP       0.128300
      8 OAR         -2.5220    -1.3980    -1.0010 oh         1 GOP      -0.733000
      9 CAI         -0.9770     0.1580     0.0530 c3         1 GOP       0.138300
     10 OAQ         -0.8730    -0.8010     1.1410 oh         1 GOP      -0.801000
     11 CAH          0.2080     0.0090    -0.9480 c3         1 GOP       0.147800
     12 N            1.4970     0.4030    -0.3230 n7         1 GOP      -0.897400
     13 CA           2.6000    -0.6240    -0.3690 c3         1 GOP       0.037500
     14 C            2.3020    -1.9480     0.4380 c          1 GOP       0.700000
     15 O            1.4490    -1.9010     1.3160 o          1 GOP      -0.716000
     16 CB           3.9240     0.0160     0.1270 c3         1 GOP      -0.046400
     17 CG           4.4540     1.1620    -0.7740 c3         1 GOP      -0.155400
     18 CD           5.7840     1.7070    -0.2510 c          1 GOP       0.599100
     19 OE1          6.8620     1.1880    -0.4890 o          1 GOP      -0.615100
     20 NE2          5.7150     2.8210     0.5080 nt         1 GOP      -0.623000
     21 OXT          2.8380    -2.9870     0.0760 o          1 GOP      -0.716000
     22 H1          -8.0480     1.0170     0.5750 ho         1 GOP       0.490000
     23 H2          -5.8500     1.7200     1.0990 h1         1 GOP       0.024200
     24 H3          -6.1800     0.0130     1.4510 h1         1 GOP       0.024200
     25 H4          -5.1240    -0.7210    -0.5990 h1         1 GOP       0.096700
     26 H5          -6.0210     1.3650    -1.5290 ho         1 GOP       0.486000
     27 H6          -3.3640     1.4970     0.5600 h1         1 GOP       0.054700
     28 H7          -2.4820    -0.5690     1.6030 ho         1 GOP       0.513000
     29 H8          -2.3990     0.6280    -1.5230 h1         1 GOP       0.063700
     30 H9          -2.1020    -1.8930    -0.2570 ho         1 GOP       0.534000
     31 H10         -0.9330     1.1790     0.4580 h1         1 GOP       0.033700
     32 H11          0.0800    -1.1610     1.1590 ho         1 GOP       0.598000
     33 H12          0.2430    -1.0260    -1.3170 h1         1 GOP       0.037700
     34 H13          0.0150     0.6510    -1.8180 h1         1 GOP       0.037700
     35 H14          1.3180     0.6360     0.6620 hn         1 GOP       0.419000
     36 H16          2.7580    -0.9340    -1.4110 h1         1 GOP       0.046700
     37 H17          3.7900     0.3830     1.1520 hc         1 GOP       0.059200
     38 H18          4.6910    -0.7670     0.1760 hc         1 GOP       0.059200
     39 H19          4.5970     0.7740    -1.7900 hc         1 GOP       0.055200
     40 H20          3.7070     1.9640    -0.7750 hc         1 GOP       0.055200
     41 H21          4.8190     3.2440     0.7020 hn         1 GOP       0.300500
     42 H22          6.5640     3.2210     0.8780 hn         1 GOP       0.300500
@<TRIPOS>BOND
     1     1     2 1   
     2     1    22 1   
     3     2     3 1   
     4     2    23 1   
     5     2    24 1   
     6     3     4 1   
     7     3     5 1   
     8     3    25 1   
     9     4    26 1   
    10     5     6 1   
    11     5     7 1   
    12     5    27 1   
    13     6    28 1   
    14     7     8 1   
    15     7     9 1   
    16     7    29 1   
    17     8    30 1   
    18     9    10 1   
    19     9    11 1   
    20     9    31 1   
    21    10    32 1   
    22    11    12 1   
    23    11    33 1   
    24    11    34 1   
    25    12    13 1   
    26    12    35 1   
    27    13    14 1   
    28    13    16 1   
    29    13    36 1   
    30    14    15 1   
    31    14    21 1   
    32    16    17 1   
    33    16    37 1   
    34    16    38 1   
    35    17    18 1   
    36    17    39 1   
    37    17    40 1   
    38    18    19 2   
    39    18    20 1   
    40    20    41 1   
    41    20    42 1   
@<TRIPOS>SUBSTRUCTURE
     1 GOP         1 TEMP              0 ****  ****    0 ROOT
