@<TRIPOS>MOLECULE
GOQ
   35    38     1     0     0
SMALL
No Charge or Current Charge


@<TRIPOS>ATOM
      1 N           -0.7250    -2.7970     0.2410 no         1 GOQ       0.720200
      2 C            5.5000    -1.7010     0.1010 c3         1 GOQ       0.152900
      3 C1           3.4470    -0.3110     0.0400 ca         1 GOQ       0.155100
      4 C10          2.0280    -0.2470     0.0330 ca         1 GOQ      -0.068000
      5 C11         -2.2790    -0.2070    -0.1300 ca         1 GOQ      -0.092600
      6 C12         -2.9700     1.0180    -0.1050 ca         1 GOQ      -0.068000
      7 C13         -2.2500     2.1930     0.0040 ca         1 GOQ       0.043100
      8 C14         -0.8820     2.2080     0.0410 ca         1 GOQ       0.020100
      9 C15         -1.6600     4.2850     0.3070 c5         1 GOQ       0.374600
     10 C16         -3.1570    -1.4110    -0.3640 c          1 GOQ       0.717600
     11 C2           4.2010     0.8750    -0.0090 ca         1 GOQ      -0.221000
     12 C3           3.5480     2.1050    -0.0690 ca         1 GOQ      -0.083000
     13 C4           2.1490     2.1660    -0.0720 ca         1 GOQ      -0.130000
     14 C5           1.3410     0.9960    -0.0070 ca         1 GOQ       0.038000
     15 C6          -0.1030     1.0100     0.0000 ca         1 GOQ      -0.025000
     16 C7          -0.8380    -0.2330    -0.0240 ca         1 GOQ       0.004000
     17 C8          -0.1020    -1.4560     0.0610 ca         1 GOQ      -0.072200
     18 C9           1.2990    -1.4420     0.0830 ca         1 GOQ      -0.073000
     19 O1          -1.2800    -3.0110     1.3280 o          1 GOQ      -0.397500
     20 O2          -0.3610    -3.7010    -0.5260 o          1 GOQ      -0.397500
     21 O3          -0.4410     3.4970     0.1190 os         1 GOQ      -0.364100
     22 O4          -2.8090     3.4290     0.0320 os         1 GOQ      -0.349100
     23 O5          -3.0120    -2.0260    -1.4100 o          1 GOQ      -0.696500
     24 O6          -4.0550    -1.6340     0.4350 o          1 GOQ      -0.696500
     25 H1           5.9440    -1.2770    -0.8090 h1         1 GOQ       0.036033
     26 H2           5.9390    -1.2030     0.9750 h1         1 GOQ       0.036033
     27 H3           5.7670    -2.7640     0.1460 h1         1 GOQ       0.036033
     28 H4          -4.0550     1.0510    -0.1830 ha         1 GOQ       0.156000
     29 H5          -1.7080     4.6180     1.3500 h2         1 GOQ       0.047700
     30 H6          -1.6610     5.1470    -0.3700 h2         1 GOQ       0.047700
     31 H7           5.2870     0.8640    -0.0080 ha         1 GOQ       0.107000
     32 H8           4.1290     3.0240    -0.1190 ha         1 GOQ       0.099000
     33 H9           1.7420     3.1610    -0.1460 ha         1 GOQ       0.133000
     34 H10          1.8220    -2.3930     0.1560 ha         1 GOQ       0.146000
     35 O            4.0690    -1.5480     0.0920 os         1 GOQ      -0.336100
@<TRIPOS>BOND
     1     1    17 1   
     2     1    19 1   
     3     1    20 1   
     4     2    25 1   
     5     2    26 1   
     6     2    27 1   
     7     2    35 1   
     8     3     4 ar  
     9     3    11 ar  
    10     3    35 1   
    11     4    14 ar  
    12     4    18 ar  
    13     5     6 ar  
    14     5    10 1   
    15     5    16 ar  
    16     6     7 ar  
    17     6    28 1   
    18     7     8 ar  
    19     7    22 1   
    20     8    15 ar  
    21     8    21 1   
    22     9    21 1   
    23     9    22 1   
    24     9    29 1   
    25     9    30 1   
    26    10    23 1   
    27    10    24 1   
    28    11    12 ar  
    29    11    31 1   
    30    12    13 ar  
    31    12    32 1   
    32    13    14 ar  
    33    13    33 1   
    34    14    15 ar  
    35    15    16 ar  
    36    16    17 ar  
    37    17    18 ar  
    38    18    34 1   
@<TRIPOS>SUBSTRUCTURE
     1 GOQ         1 TEMP              0 ****  ****    0 ROOT
