@<TRIPOS>MOLECULE
GOQ
   35    38     1     0     0
SMALL
bcc


@<TRIPOS>ATOM
      1 N           -0.6920    -2.6750     0.5810 no         1 GOQ       0.340200
      2 C            5.3840    -1.6630    -0.1280 c3         1 GOQ       0.129700
      3 C1           3.4430    -0.3000    -0.0330 ca         1 GOQ       0.155100
      4 C10          2.0270    -0.2490     0.0270 ca         1 GOQ      -0.068000
      5 C11         -2.2410    -0.2220    -0.1660 ca         1 GOQ      -0.092600
      6 C12         -2.9460     0.9730    -0.1380 ca         1 GOQ      -0.086000
      7 C13         -2.2330     2.1420     0.0000 ca         1 GOQ       0.043100
      8 C14         -0.8610     2.1630     0.0710 ca         1 GOQ       0.020100
      9 C15         -1.6130     4.2390     0.3130 c5         1 GOQ       0.328200
     10 C16         -3.0300    -1.4580    -0.5880 c          1 GOQ       0.928200
     11 C2           4.1780     0.8670    -0.0280 ca         1 GOQ      -0.239000
     12 C3           3.5080     2.0890     0.0360 ca         1 GOQ      -0.101000
     13 C4           2.1350     2.1670     0.0860 ca         1 GOQ      -0.148000
     14 C5           1.3590     0.9930     0.0710 ca         1 GOQ       0.038000
     15 C6          -0.0940     0.9990     0.0740 ca         1 GOQ      -0.025000
     16 C7          -0.8410    -0.2220     0.0160 ca         1 GOQ       0.004000
     17 C8          -0.0710    -1.4280     0.1590 ca         1 GOQ      -0.072200
     18 C9           1.2780    -1.4540     0.1240 ca         1 GOQ      -0.091000
     19 O1          -1.5440    -2.6050     1.4370 o          1 GOQ      -0.207500
     20 O2          -0.2650    -3.7120     0.1350 o          1 GOQ      -0.207500
     21 O3          -0.4460     3.4560     0.0970 os         1 GOQ      -0.340900
     22 O4          -2.7160     3.4080    -0.0070 os         1 GOQ      -0.325900
     23 O5          -2.4120    -2.2660    -1.3060 o          1 GOQ      -0.801800
     24 O6          -4.2220    -1.5100    -0.2430 o          1 GOQ      -0.801800
     25 H1           5.8120    -1.1850    -1.0130 h1         1 GOQ       0.036033
     26 H2           5.8570    -1.2470     0.7650 h1         1 GOQ       0.036033
     27 H3           5.5880    -2.7290    -0.1710 h1         1 GOQ       0.036033
     28 H4          -4.0200     0.9800    -0.2620 ha         1 GOQ       0.174000
     29 H5          -1.6640     4.5440     1.3640 h2         1 GOQ       0.047700
     30 H6          -1.5970     5.1090    -0.3420 h2         1 GOQ       0.047700
     31 H7           5.2580     0.8590    -0.0730 ha         1 GOQ       0.125000
     32 H8           4.0900     3.0010     0.0430 ha         1 GOQ       0.117000
     33 H9           1.6790     3.1410     0.1290 ha         1 GOQ       0.151000
     34 H10          1.8030    -2.3900     0.2540 ha         1 GOQ       0.164000
     35 O            3.9750    -1.5290    -0.0890 os         1 GOQ      -0.312900
@<TRIPOS>BOND
     1     1    17 1   
     2     1    19 1   
     3     1    20 1   
     4     2    25 1   
     5     2    26 1   
     6     2    27 1   
     7     2    35 1   
     8     3     4 ar  
     9     3    11 ar  
    10     3    35 1   
    11     4    14 ar  
    12     4    18 ar  
    13     5     6 ar  
    14     5    10 1   
    15     5    16 ar  
    16     6     7 ar  
    17     6    28 1   
    18     7     8 ar  
    19     7    22 1   
    20     8    15 ar  
    21     8    21 1   
    22     9    21 1   
    23     9    22 1   
    24     9    29 1   
    25     9    30 1   
    26    10    23 1   
    27    10    24 1   
    28    11    12 ar  
    29    11    31 1   
    30    12    13 ar  
    31    12    32 1   
    32    13    14 ar  
    33    13    33 1   
    34    14    15 ar  
    35    15    16 ar  
    36    16    17 ar  
    37    17    18 ar  
    38    18    34 1   
@<TRIPOS>SUBSTRUCTURE
     1 GOQ         1 TEMP              0 ****  ****    0 ROOT
