@<TRIPOS>MOLECULE
GOR
   31    34     1     0     0
SMALL
abcg2


@<TRIPOS>ATOM
      1 N           14.4840     4.3480     9.6330 no         1 GOR       0.718200
      2 C           10.3770     9.5410    11.9040 c5         1 GOR       0.376600
      3 O           10.9360     8.6540    12.8580 os         1 GOR      -0.349100
      4 C1          11.5710     7.6920    12.1480 ca         1 GOR       0.048100
      5 C10         11.9410     6.0390     7.5640 ca         1 GOR      -0.039000
      6 C11         11.5790     6.0270     6.2080 ca         1 GOR      -0.098000
      7 C12         10.6920     6.9510     5.7120 ca         1 GOR      -0.122000
      8 C13         10.1610     7.9150     6.5720 ca         1 GOR      -0.122000
      9 C14         10.5080     7.9450     7.9060 ca         1 GOR      -0.093000
     10 C15         11.4020     7.0010     8.4450 ca         1 GOR       0.006000
     11 C2          11.2760     7.8220    10.8120 ca         1 GOR       0.016100
     12 C3          11.7700     6.9460     9.8490 ca         1 GOR      -0.016000
     13 C4          12.6390     5.9210    10.3450 ca         1 GOR      -0.008000
     14 C5          12.8530     5.7420    11.7280 ca         1 GOR      -0.089600
     15 C6          12.3380     6.6580    12.6350 ca         1 GOR      -0.072000
     16 C7          13.4750     4.4800    12.3280 c          1 GOR       0.718600
     17 C8          13.2690     5.0980     9.3430 ca         1 GOR      -0.054200
     18 C9          12.9160     5.1170     8.0420 ca         1 GOR      -0.098000
     19 O1          10.4380     8.8770    10.6480 os         1 GOR      -0.364100
     20 O2          13.2250     3.4240    11.7160 o          1 GOR      -0.694500
     21 O3          14.1000     4.6170    13.3910 o          1 GOR      -0.694500
     22 O4          14.6390     3.2760     9.1010 o          1 GOR      -0.395500
     23 O5          15.3190     4.8980    10.3120 o          1 GOR      -0.395500
     24 H1          10.9620    10.4660    11.8620 h2         1 GOR       0.047200
     25 H2           9.3380     9.7550    12.1570 h2         1 GOR       0.047200
     26 H3          12.0150     5.2780     5.5580 ha         1 GOR       0.109000
     27 H4          10.4120     6.9370     4.6670 ha         1 GOR       0.102000
     28 H5           9.4660     8.6520     6.1910 ha         1 GOR       0.100000
     29 H6          10.0680     8.7080     8.5260 ha         1 GOR       0.129000
     30 H7          12.5050     6.5350    13.6960 ha         1 GOR       0.155000
     31 H8          13.4220     4.4870     7.3230 ha         1 GOR       0.133000
@<TRIPOS>BOND
     1     1    17 1   
     2     1    22 1   
     3     1    23 1   
     4     2     3 1   
     5     2    19 1   
     6     2    24 1   
     7     2    25 1   
     8     3     4 1   
     9     4    11 ar  
    10     4    15 ar  
    11     5     6 ar  
    12     5    10 ar  
    13     5    18 ar  
    14     6     7 ar  
    15     6    26 1   
    16     7     8 ar  
    17     7    27 1   
    18     8     9 ar  
    19     8    28 1   
    20     9    10 ar  
    21     9    29 1   
    22    10    12 ar  
    23    11    12 ar  
    24    11    19 1   
    25    12    13 ar  
    26    13    14 ar  
    27    13    17 ar  
    28    14    15 ar  
    29    14    16 1   
    30    15    30 1   
    31    16    20 1   
    32    16    21 1   
    33    17    18 ar  
    34    18    31 1   
@<TRIPOS>SUBSTRUCTURE
     1 GOR         1 TEMP              0 ****  ****    0 ROOT
