@<TRIPOS>MOLECULE
GOR
   31    34     1     0     0
SMALL
No Charge or Current Charge


@<TRIPOS>ATOM
      1 N           14.3530     4.0890     9.6600 no         1 GOR       0.718200
      2 C           10.2960     9.5120    11.9680 c5         1 GOR       0.376600
      3 O           10.8940     8.6150    12.9510 os         1 GOR      -0.349100
      4 C1          11.5020     7.6880    12.1670 ca         1 GOR       0.048100
      5 C10         11.9960     6.0990     7.5450 ca         1 GOR      -0.039000
      6 C11         11.7150     6.1320     6.1640 ca         1 GOR      -0.098000
      7 C12         10.8000     7.0530     5.6480 ca         1 GOR      -0.122000
      8 C13         10.1640     7.9420     6.5170 ca         1 GOR      -0.122000
      9 C14         10.4440     7.9150     7.8930 ca         1 GOR      -0.093000
     10 C15         11.3790     6.9950     8.4520 ca         1 GOR       0.006000
     11 C2          11.1940     7.8080    10.8400 ca         1 GOR       0.016100
     12 C3          11.7140     6.9150     9.8530 ca         1 GOR      -0.016000
     13 C4          12.6290     5.8970    10.3200 ca         1 GOR      -0.008000
     14 C5          12.8770     5.7630    11.7370 ca         1 GOR      -0.089600
     15 C6          12.3130     6.6760    12.6460 ca         1 GOR      -0.072000
     16 C7          13.6480     4.6380    12.3840 c          1 GOR       0.718600
     17 C8          13.2570     5.0500     9.3510 ca         1 GOR      -0.054200
     18 C9          12.9240     5.1600     7.9930 ca         1 GOR      -0.098000
     19 O1          10.3480     8.8620    10.6560 os         1 GOR      -0.364100
     20 O2          13.1980     3.5060    12.2810 o          1 GOR      -0.694500
     21 O3          14.6060     4.9260    13.0880 o          1 GOR      -0.694500
     22 O4          14.2270     2.9280     9.2400 o          1 GOR      -0.395500
     23 O5          15.4420     4.5740     9.9970 o          1 GOR      -0.395500
     24 H1          10.8850    10.4360    11.9280 h2         1 GOR       0.047200
     25 H2           9.2570     9.7320    12.2390 h2         1 GOR       0.047200
     26 H3          12.2070     5.4390     5.4850 ha         1 GOR       0.109000
     27 H4          10.5830     7.0750     4.5820 ha         1 GOR       0.102000
     28 H5           9.4440     8.6580     6.1260 ha         1 GOR       0.100000
     29 H6           9.8920     8.6270     8.4850 ha         1 GOR       0.129000
     30 H7          12.4930     6.5860    13.7160 ha         1 GOR       0.155000
     31 H8          13.4140     4.5120     7.2690 ha         1 GOR       0.133000
@<TRIPOS>BOND
     1     1    17 1   
     2     1    22 1   
     3     1    23 1   
     4     2     3 1   
     5     2    19 1   
     6     2    24 1   
     7     2    25 1   
     8     3     4 1   
     9     4    11 ar  
    10     4    15 ar  
    11     5     6 ar  
    12     5    10 ar  
    13     5    18 ar  
    14     6     7 ar  
    15     6    26 1   
    16     7     8 ar  
    17     7    27 1   
    18     8     9 ar  
    19     8    28 1   
    20     9    10 ar  
    21     9    29 1   
    22    10    12 ar  
    23    11    12 ar  
    24    11    19 1   
    25    12    13 ar  
    26    13    14 ar  
    27    13    17 ar  
    28    14    15 ar  
    29    14    16 1   
    30    15    30 1   
    31    16    20 1   
    32    16    21 1   
    33    17    18 ar  
    34    18    31 1   
@<TRIPOS>SUBSTRUCTURE
     1 GOR         1 TEMP              0 ****  ****    0 ROOT
