@<TRIPOS>MOLECULE
GOT
  124   124     1     0     0
SMALL
No Charge or Current Charge


@<TRIPOS>ATOM
      1 C10         -7.0660     0.7090    -0.9190 c3         1 GOT      -0.075400
      2 C11         -8.5950     0.5000    -0.9730 c3         1 GOT      -0.070400
      3 C12         -9.3920     1.7840    -0.6520 c3         1 GOT      -0.075400
      4 C01          1.4260    -3.8590    -0.9530 c3         1 GOT       0.152300
      5 C02          0.6810    -3.4180    -2.2500 c3         1 GOT       0.173600
      6 C04         -1.5810    -2.7030    -1.7320 c          1 GOT       0.616100
      7 C06         -2.4160    -1.4690    -1.3770 c3         1 GOT      -0.144400
      8 C07         -3.9480    -1.6590    -1.4810 c3         1 GOT      -0.063400
      9 C08         -4.7410    -0.3690    -1.1770 c3         1 GOT      -0.082400
     10 C09         -6.2700    -0.5750    -1.2390 c3         1 GOT      -0.067400
     11 C13        -10.9210     1.5750    -0.7050 c3         1 GOT      -0.073400
     12 C14        -11.7180     2.8580    -0.3850 c3         1 GOT      -0.075400
     13 C15        -13.2470     2.6500    -0.4380 c3         1 GOT      -0.074400
     14 C16        -14.0440     3.9330    -0.1180 c3         1 GOT      -0.074400
     15 C17        -15.5730     3.7240    -0.1710 c3         1 GOT      -0.074400
     16 C18        -16.3700     5.0080     0.1490 c3         1 GOT      -0.075400
     17 C19        -17.9000     4.7990     0.0950 c3         1 GOT      -0.075400
     18 C20        -18.6950     6.0790     0.4150 c3         1 GOT      -0.088100
     19 C21          0.5290    -4.2310     0.2740 c3         1 GOT       0.208600
     20 C27         -3.5580    -3.4430     2.1330 c3         1 GOT       0.189600
     21 C28         -4.0210    -1.9800     2.4410 c3         1 GOT       0.147300
     22 C30         -5.5710    -1.9080     2.6060 c3         1 GOT       0.162600
     23 C35          4.2090    -1.8410     0.5960 c3         1 GOT      -0.141400
     24 C36          5.4430    -1.7470    -0.3310 c3         1 GOT      -0.066400
     25 C37          6.3080    -0.4970    -0.0600 c3         1 GOT      -0.077400
     26 C38          7.5410    -0.4030    -0.9850 c3         1 GOT      -0.073400
     27 C39          8.4060     0.8470    -0.7140 c3         1 GOT      -0.075400
     28 C40          9.6400     0.9410    -1.6380 c3         1 GOT      -0.073400
     29 C41         10.5060     2.1900    -1.3680 c3         1 GOT      -0.047400
     30 C42         11.7260     2.2680    -2.2840 cx         1 GOT      -0.111700
     31 C43         13.0360     1.6190    -1.8950 cx         1 GOT      -0.133400
     32 C44         12.9340     3.1260    -1.9790 cx         1 GOT      -0.117700
     33 C45         13.0460     3.9940    -0.7260 c3         1 GOT      -0.046400
     34 C46         14.5030     4.3950    -0.4100 c3         1 GOT      -0.073400
     35 C47         14.6290     5.2690     0.8570 c3         1 GOT      -0.076400
     36 C48         16.0870     5.6680     1.1730 c3         1 GOT      -0.074400
     37 C49         16.2140     6.5410     2.4400 c3         1 GOT      -0.075400
     38 C50         17.6690     6.9390     2.7560 c3         1 GOT      -0.088100
     39 O03         -0.2760    -2.3660    -1.9900 os         1 GOT      -0.429100
     40 O05         -2.0300    -3.8400    -1.8030 o          1 GOT      -0.505000
     41 O22          0.0510    -3.0420     0.9260 os         1 GOT      -0.584400
     42 O24         -0.9380    -1.8920     2.9680 o          1 GOT      -0.813500
     43 O25         -0.4720    -4.3220     3.0980 o          1 GOT      -0.813500
     44 O26         -2.2770    -3.4720     1.4720 os         1 GOT      -0.613400
     45 O29         -3.3640    -1.4650     3.6200 oh         1 GOT      -0.713000
     46 O31         -6.0310    -0.5510     2.7280 oh         1 GOT      -0.643000
     47 O32          2.3640    -2.8110    -0.5960 os         1 GOT      -0.420100
     48 O34          3.6110    -4.1900     0.7590 o          1 GOT      -0.508000
     49 P23         -0.8830    -3.1850     2.2270 p5         1 GOT       1.405800
     50 H102        -6.7840     1.4950    -1.6310 hc         1 GOT       0.046200
     51 H101        -6.7860     1.0660     0.0800 hc         1 GOT       0.046200
     52 H111        -8.8750     0.1430    -1.9720 hc         1 GOT       0.031200
     53 H112        -8.8760    -0.2860    -0.2610 hc         1 GOT       0.031200
     54 H121        -9.1120     2.1410     0.3470 hc         1 GOT       0.038700
     55 H122        -9.1100     2.5700    -1.3640 hc         1 GOT       0.038700
     56 H011         1.9840    -4.7630    -1.2280 h1         1 GOT       0.048700
     57 H022         1.4370    -3.0570    -2.9590 h1         1 GOT       0.053200
     58 H021         0.2080    -4.2900    -2.7200 h1         1 GOT       0.053200
     59 H061        -2.1130    -1.1590    -0.3710 hc         1 GOT       0.089200
     60 H062        -2.0570    -0.6310    -1.9850 hc         1 GOT       0.089200
     61 H072        -4.2000    -2.0040    -2.4920 hc         1 GOT       0.043200
     62 H071        -4.2610    -2.4490    -0.7870 hc         1 GOT       0.043200
     63 H082        -4.4680     0.0000    -0.1810 hc         1 GOT       0.050200
     64 H081        -4.4520     0.4090    -1.8950 hc         1 GOT       0.050200
     65 H091        -6.5560    -1.3610    -0.5300 hc         1 GOT       0.032200
     66 H092        -6.5450    -0.9300    -2.2400 hc         1 GOT       0.032200
     67 H132       -11.2010     1.2170    -1.7040 hc         1 GOT       0.033200
     68 H131       -11.2020     0.7890     0.0070 hc         1 GOT       0.033200
     69 H141       -11.4380     3.2160     0.6140 hc         1 GOT       0.037200
     70 H142       -11.4360     3.6440    -1.0970 hc         1 GOT       0.037200
     71 H152       -13.5270     2.2920    -1.4370 hc         1 GOT       0.034700
     72 H151       -13.5280     1.8640     0.2740 hc         1 GOT       0.034700
     73 H162       -13.7640     4.2910     0.8810 hc         1 GOT       0.037200
     74 H161       -13.7630     4.7190    -0.8300 hc         1 GOT       0.037200
     75 H172       -15.8530     3.3660    -1.1700 hc         1 GOT       0.035200
     76 H171       -15.8540     2.9380     0.5410 hc         1 GOT       0.035200
     77 H181       -16.0910     5.3660     1.1480 hc         1 GOT       0.037200
     78 H182       -16.0890     5.7930    -0.5630 hc         1 GOT       0.037200
     79 H192       -18.1830     4.4430    -0.9030 hc         1 GOT       0.035700
     80 H191       -18.1850     4.0150     0.8080 hc         1 GOT       0.035700
     81 H203       -18.4590     6.4410     1.4230 hc         1 GOT       0.029700
     82 H202       -18.4580     6.8730    -0.3030 hc         1 GOT       0.029700
     83 H201       -19.7730     5.8820     0.3650 hc         1 GOT       0.029700
     84 H212        -0.3070    -4.8570    -0.0650 h1         1 GOT       0.042700
     85 H211         1.1190    -4.8370     0.9730 h1         1 GOT       0.042700
     86 H272        -3.5320    -4.0260     3.0640 h1         1 GOT       0.029200
     87 H271        -4.3030    -3.9160     1.4790 h1         1 GOT       0.029200
     88 H281        -3.7560    -1.3640     1.5720 h1         1 GOT       0.037700
     89 H302        -6.0420    -2.3750     1.7310 h1         1 GOT       0.009700
     90 H301        -5.8680    -2.4900     3.4880 h1         1 GOT       0.009700
     91 H352         3.5950    -0.9490     0.4210 hc         1 GOT       0.075700
     92 H351         4.5430    -1.8820     1.6390 hc         1 GOT       0.075700
     93 H362         6.0590    -2.6470    -0.2030 hc         1 GOT       0.049700
     94 H361         5.1090    -1.7360    -1.3770 hc         1 GOT       0.049700
     95 H372         5.6920     0.4020    -0.1900 hc         1 GOT       0.038200
     96 H371         6.6420    -0.5090     0.9850 hc         1 GOT       0.038200
     97 H382         8.1570    -1.3020    -0.8560 hc         1 GOT       0.037700
     98 H381         7.2080    -0.3910    -2.0310 hc         1 GOT       0.037700
     99 H392         7.7900     1.7460    -0.8440 hc         1 GOT       0.036200
    100 H391         8.7390     0.8350     0.3310 hc         1 GOT       0.036200
    101 H402        10.2570     0.0420    -1.5080 hc         1 GOT       0.038200
    102 H401         9.3070     0.9520    -2.6840 hc         1 GOT       0.038200
    103 H412         9.8920     3.0890    -1.5060 hc         1 GOT       0.040700
    104 H411        10.8120     2.1780    -0.3150 hc         1 GOT       0.040700
    105 H421        11.4470     2.2090    -3.3340 hc         1 GOT       0.070700
    106 H431        13.1080     1.1660    -0.9090 hc         1 GOT       0.069700
    107 H432        13.5970     1.1050    -2.6720 hc         1 GOT       0.069700
    108 H441        13.4030     3.5980    -2.8400 hc         1 GOT       0.069700
    109 H451        12.4450     4.9020    -0.8610 hc         1 GOT       0.042200
    110 H452        12.6330     3.4710     0.1450 hc         1 GOT       0.042200
    111 H461        15.1040     3.4860    -0.2820 hc         1 GOT       0.037700
    112 H462        14.9210     4.9380    -1.2660 hc         1 GOT       0.037700
    113 H471        14.0270     6.1770     0.7300 hc         1 GOT       0.037700
    114 H472        14.2110     4.7250     1.7130 hc         1 GOT       0.037700
    115 H481        16.6900     4.7590     1.3000 hc         1 GOT       0.036200
    116 H482        16.5050     6.2120     0.3170 hc         1 GOT       0.036200
    117 H491        15.6150     7.4520     2.3160 hc         1 GOT       0.037200
    118 H492        15.7990     5.9990     3.2990 hc         1 GOT       0.037200
    119 H503        18.2880     6.0490     2.9210 hc         1 GOT       0.030033
    120 H501        18.1020     7.5150     1.9290 hc         1 GOT       0.030033
    121 H502        17.7080     7.5570     3.6610 hc         1 GOT       0.030033
    122 H291        -2.3760    -1.5400     3.4260 ho         1 GOT       0.517000
    123 H311        -6.9940    -0.5930     2.9150 ho         1 GOT       0.418000
    124 C33          3.3750    -3.0860     0.2880 c          1 GOT       0.602100
@<TRIPOS>BOND
     1     1     2 1   
     2     1    10 1   
     3     1    50 1   
     4     1    51 1   
     5     2     3 1   
     6     2    52 1   
     7     2    53 1   
     8     3    11 1   
     9     3    54 1   
    10     3    55 1   
    11     4     5 1   
    12     4    19 1   
    13     4    47 1   
    14     4    56 1   
    15     5    39 1   
    16     5    57 1   
    17     5    58 1   
    18     6     7 1   
    19     6    39 1   
    20     6    40 2   
    21     7     8 1   
    22     7    59 1   
    23     7    60 1   
    24     8     9 1   
    25     8    61 1   
    26     8    62 1   
    27     9    10 1   
    28     9    63 1   
    29     9    64 1   
    30    10    65 1   
    31    10    66 1   
    32    11    12 1   
    33    11    67 1   
    34    11    68 1   
    35    12    13 1   
    36    12    69 1   
    37    12    70 1   
    38    13    14 1   
    39    13    71 1   
    40    13    72 1   
    41    14    15 1   
    42    14    73 1   
    43    14    74 1   
    44    15    16 1   
    45    15    75 1   
    46    15    76 1   
    47    16    17 1   
    48    16    77 1   
    49    16    78 1   
    50    17    18 1   
    51    17    79 1   
    52    17    80 1   
    53    18    81 1   
    54    18    82 1   
    55    18    83 1   
    56    19    41 1   
    57    19    84 1   
    58    19    85 1   
    59    20    21 1   
    60    20    44 1   
    61    20    86 1   
    62    20    87 1   
    63    21    22 1   
    64    21    45 1   
    65    21    88 1   
    66    22    46 1   
    67    22    89 1   
    68    22    90 1   
    69    23    24 1   
    70    23    91 1   
    71    23    92 1   
    72    23   124 1   
    73    24    25 1   
    74    24    93 1   
    75    24    94 1   
    76    25    26 1   
    77    25    95 1   
    78    25    96 1   
    79    26    27 1   
    80    26    97 1   
    81    26    98 1   
    82    27    28 1   
    83    27    99 1   
    84    27   100 1   
    85    28    29 1   
    86    28   101 1   
    87    28   102 1   
    88    29    30 1   
    89    29   103 1   
    90    29   104 1   
    91    30    31 1   
    92    30    32 1   
    93    30   105 1   
    94    31    32 1   
    95    31   106 1   
    96    31   107 1   
    97    32    33 1   
    98    32   108 1   
    99    33    34 1   
   100    33   109 1   
   101    33   110 1   
   102    34    35 1   
   103    34   111 1   
   104    34   112 1   
   105    35    36 1   
   106    35   113 1   
   107    35   114 1   
   108    36    37 1   
   109    36   115 1   
   110    36   116 1   
   111    37    38 1   
   112    37   117 1   
   113    37   118 1   
   114    38   119 1   
   115    38   120 1   
   116    38   121 1   
   117    41    49 1   
   118    42    49 1   
   119    43    49 1   
   120    44    49 1   
   121    45   122 1   
   122    46   123 1   
   123    47   124 1   
   124    48   124 2   
@<TRIPOS>SUBSTRUCTURE
     1 GOT         1 TEMP              0 ****  ****    0 ROOT
