@<TRIPOS>MOLECULE
GOT
  124   124     1     0     0
SMALL
abcg2


@<TRIPOS>ATOM
      1 C10         -6.4170     0.4350    -1.0300 c3         1 GOT      -0.075400
      2 C11         -7.9340     0.4810    -0.8990 c3         1 GOT      -0.070400
      3 C12         -8.4610     1.8320    -0.4330 c3         1 GOT      -0.075400
      4 C01          1.2130    -4.8370    -1.2760 c3         1 GOT       0.152300
      5 C02          0.2790    -4.9210    -2.4680 c3         1 GOT       0.173600
      6 C04         -1.7730    -3.7540    -2.1790 c          1 GOT       0.616100
      7 C06         -2.3550    -2.3690    -2.1640 c3         1 GOT      -0.144400
      8 C07         -3.8690    -2.3390    -2.0360 c3         1 GOT      -0.063400
      9 C08         -4.3880    -0.9520    -1.6770 c3         1 GOT      -0.082400
     10 C09         -5.9000    -0.9180    -1.4960 c3         1 GOT      -0.067400
     11 C13         -9.9820     1.9030    -0.3920 c3         1 GOT      -0.073400
     12 C14        -10.5130     3.2500     0.0840 c3         1 GOT      -0.075400
     13 C15        -12.0340     3.3380     0.0620 c3         1 GOT      -0.074400
     14 C16        -12.5690     4.6800     0.5460 c3         1 GOT      -0.074400
     15 C17        -14.0880     4.7760     0.4940 c3         1 GOT      -0.074400
     16 C18        -14.6250     6.1160     0.9810 c3         1 GOT      -0.075400
     17 C19        -16.1430     6.2200     0.9120 c3         1 GOT      -0.075400
     18 C20        -16.6680     7.5620     1.4040 c3         1 GOT      -0.088100
     19 C21          0.5350    -4.6540     0.0730 c3         1 GOT       0.208600
     20 C27         -3.1570    -3.3970     2.3530 c3         1 GOT       0.189600
     21 C28         -4.0670    -2.2570     1.8940 c3         1 GOT       0.147300
     22 C30         -5.3880    -2.3290     2.6360 c3         1 GOT       0.162600
     23 C35          4.0990    -2.5310    -1.3260 c3         1 GOT      -0.141400
     24 C36          5.5800    -2.6080    -0.9870 c3         1 GOT      -0.066400
     25 C37          6.3010    -1.3080    -1.3220 c3         1 GOT      -0.077400
     26 C38          7.7920    -1.3560    -1.0180 c3         1 GOT      -0.073400
     27 C39          8.5030    -0.0460    -1.3280 c3         1 GOT      -0.075400
     28 C40          9.9970    -0.0770    -1.0360 c3         1 GOT      -0.073400
     29 C41         10.6800     1.2570    -1.3140 c3         1 GOT      -0.047400
     30 C42         12.1610     1.2260    -1.0290 cx         1 GOT      -0.111700
     31 C43         12.6790     1.3560     0.3740 cx         1 GOT      -0.133400
     32 C44         12.9390     2.4460    -0.6250 cx         1 GOT      -0.117700
     33 C45         12.3010     3.8020    -0.4550 c3         1 GOT      -0.046400
     34 C46         13.1300     4.7330     0.4210 c3         1 GOT      -0.073400
     35 C47         12.4650     6.0860     0.6400 c3         1 GOT      -0.076400
     36 C48         13.2900     7.0380     1.4960 c3         1 GOT      -0.074400
     37 C49         12.6010     8.3750     1.7430 c3         1 GOT      -0.075400
     38 C50         13.4340     9.3240     2.5920 c3         1 GOT      -0.088100
     39 O03         -0.5120    -3.7470    -2.6210 os         1 GOT      -0.429100
     40 O05         -2.3490    -4.7520    -1.8320 o          1 GOT      -0.505000
     41 O22         -0.0340    -3.3650     0.1290 os         1 GOT      -0.584400
     42 O24         -1.0300    -1.3420     1.1900 o          1 GOT      -0.813500
     43 O25          0.0690    -3.1560     2.7000 o          1 GOT      -0.813500
     44 O26         -2.1070    -3.6610     1.4330 os         1 GOT      -0.613400
     45 O29         -3.5070    -0.9880     2.1030 oh         1 GOT      -0.713000
     46 O31         -6.2470    -1.3270     2.1460 oh         1 GOT      -0.643000
     47 O32          2.1160    -3.7560    -1.5330 os         1 GOT      -0.420100
     48 O34          3.7420    -4.6880    -0.3130 o          1 GOT      -0.508000
     49 P23         -0.7220    -2.7910     1.4860 p5         1 GOT       1.405800
     50 H102        -6.0900     1.2150    -1.7270 hc         1 GOT       0.046200
     51 H101        -5.9630     0.6710    -0.0620 hc         1 GOT       0.046200
     52 H111        -8.3880     0.2300    -1.8650 hc         1 GOT       0.031200
     53 H112        -8.2580    -0.2970    -0.1990 hc         1 GOT       0.031200
     54 H121        -8.0560     2.0560     0.5600 hc         1 GOT       0.038700
     55 H122        -8.0820     2.6170    -1.0970 hc         1 GOT       0.038700
     56 H011         1.7540    -5.7890    -1.2480 h1         1 GOT       0.048700
     57 H022         0.8660    -5.0220    -3.3810 h1         1 GOT       0.053200
     58 H021        -0.3410    -5.8120    -2.3690 h1         1 GOT       0.053200
     59 H061        -1.9020    -1.8630    -1.3040 hc         1 GOT       0.089200
     60 H062        -2.0190    -1.8200    -3.0470 hc         1 GOT       0.089200
     61 H072        -4.3330    -2.6810    -2.9660 hc         1 GOT       0.043200
     62 H071        -4.1820    -3.0400    -1.2600 hc         1 GOT       0.043200
     63 H082        -3.9090    -0.6260    -0.7480 hc         1 GOT       0.050200
     64 H081        -4.0930    -0.2290    -2.4450 hc         1 GOT       0.050200
     65 H091        -6.1910    -1.6760    -0.7620 hc         1 GOT       0.032200
     66 H092        -6.3860    -1.1950    -2.4390 hc         1 GOT       0.032200
     67 H132       -10.3770     1.6920    -1.3930 hc         1 GOT       0.033200
     68 H131       -10.3680     1.1100     0.2580 hc         1 GOT       0.033200
     69 H141       -10.1510     3.4440     1.1000 hc         1 GOT       0.037200
     70 H142       -10.0960     4.0460    -0.5430 hc         1 GOT       0.037200
     71 H152       -12.3900     3.1530    -0.9580 hc         1 GOT       0.034700
     72 H151       -12.4540     2.5350     0.6780 hc         1 GOT       0.034700
     73 H162       -12.2280     4.8570     1.5730 hc         1 GOT       0.037200
     74 H161       -12.1340     5.4830    -0.0590 hc         1 GOT       0.037200
     75 H172       -14.4260     4.6030    -0.5340 hc         1 GOT       0.035200
     76 H171       -14.5240     3.9700     1.0940 hc         1 GOT       0.035200
     77 H181       -14.2970     6.2860     2.0130 hc         1 GOT       0.037200
     78 H182       -14.1800     6.9230     0.3880 hc         1 GOT       0.037200
     79 H192       -16.4700     6.0540    -0.1190 hc         1 GOT       0.035700
     80 H191       -16.5880     5.4120     1.5030 hc         1 GOT       0.035700
     81 H203       -16.4040     7.7290     2.4500 hc         1 GOT       0.029700
     82 H202       -16.2470     8.3850     0.8240 hc         1 GOT       0.029700
     83 H201       -17.7540     7.6230     1.3250 hc         1 GOT       0.029700
     84 H212        -0.2210    -5.4380     0.1870 h1         1 GOT       0.042700
     85 H211         1.2700    -4.7900     0.8720 h1         1 GOT       0.042700
     86 H272        -2.7680    -3.1860     3.3570 h1         1 GOT       0.029200
     87 H271        -3.7370    -4.3200     2.4220 h1         1 GOT       0.029200
     88 H281        -4.2750    -2.4300     0.8270 h1         1 GOT       0.037700
     89 H302        -5.8110    -3.3300     2.4860 h1         1 GOT       0.009700
     90 H301        -5.2070    -2.2150     3.7150 h1         1 GOT       0.009700
     91 H352         3.9570    -2.2990    -2.3840 hc         1 GOT       0.075700
     92 H351         3.6300    -1.7040    -0.7810 hc         1 GOT       0.075700
     93 H362         5.7070    -2.8320     0.0750 hc         1 GOT       0.049700
     94 H361         6.0420    -3.4330    -1.5360 hc         1 GOT       0.049700
     95 H372         6.1560    -1.0710    -2.3810 hc         1 GOT       0.038200
     96 H371         5.8420    -0.4840    -0.7630 hc         1 GOT       0.038200
     97 H382         7.9390    -1.6090     0.0380 hc         1 GOT       0.037700
     98 H381         8.2540    -2.1680    -1.5900 hc         1 GOT       0.037700
     99 H392         8.3460     0.2120    -2.3820 hc         1 GOT       0.036200
    100 H391         8.0390     0.7610    -0.7500 hc         1 GOT       0.036200
    101 H402        10.1590    -0.3510     0.0120 hc         1 GOT       0.038200
    102 H401        10.4700    -0.8660    -1.6310 hc         1 GOT       0.038200
    103 H412        10.5180     1.5390    -2.3610 hc         1 GOT       0.040700
    104 H411        10.1930     2.0320    -0.7160 hc         1 GOT       0.040700
    105 H421        12.7060     0.5260    -1.6580 hc         1 GOT       0.070700
    106 H431        11.9500     1.5610     1.1530 hc         1 GOT       0.069700
    107 H432        13.4970     0.7230     0.6940 hc         1 GOT       0.069700
    108 H441        13.9540     2.4900    -1.0130 hc         1 GOT       0.069700
    109 H451        12.1480     4.2680    -1.4350 hc         1 GOT       0.042200
    110 H452        11.3060     3.6970    -0.0130 hc         1 GOT       0.042200
    111 H461        13.3100     4.2530     1.3900 hc         1 GOT       0.037700
    112 H462        14.1170     4.8800    -0.0310 hc         1 GOT       0.037700
    113 H471        12.2620     6.5540    -0.3300 hc         1 GOT       0.037700
    114 H472        11.4860     5.9330     1.1100 hc         1 GOT       0.037700
    115 H481        13.5140     6.5640     2.4580 hc         1 GOT       0.036200
    116 H482        14.2590     7.2140     1.0150 hc         1 GOT       0.036200
    117 H491        12.3710     8.8470     0.7820 hc         1 GOT       0.037200
    118 H492        11.6360     8.1980     2.2290 hc         1 GOT       0.037200
    119 H503        13.6620     8.8840     3.5650 hc         1 GOT       0.030033
    120 H501        14.3850     9.5550     2.1070 hc         1 GOT       0.030033
    121 H502        12.9170    10.2670     2.7690 hc         1 GOT       0.030033
    122 H291        -2.6090    -0.9880     1.7030 ho         1 GOT       0.517000
    123 H311        -7.0980    -1.4290     2.5800 ho         1 GOT       0.418000
    124 C33          3.3320    -3.7800    -0.9920 c          1 GOT       0.602100
@<TRIPOS>BOND
     1     1     2 1   
     2     1    10 1   
     3     1    50 1   
     4     1    51 1   
     5     2     3 1   
     6     2    52 1   
     7     2    53 1   
     8     3    11 1   
     9     3    54 1   
    10     3    55 1   
    11     4     5 1   
    12     4    19 1   
    13     4    47 1   
    14     4    56 1   
    15     5    39 1   
    16     5    57 1   
    17     5    58 1   
    18     6     7 1   
    19     6    39 1   
    20     6    40 2   
    21     7     8 1   
    22     7    59 1   
    23     7    60 1   
    24     8     9 1   
    25     8    61 1   
    26     8    62 1   
    27     9    10 1   
    28     9    63 1   
    29     9    64 1   
    30    10    65 1   
    31    10    66 1   
    32    11    12 1   
    33    11    67 1   
    34    11    68 1   
    35    12    13 1   
    36    12    69 1   
    37    12    70 1   
    38    13    14 1   
    39    13    71 1   
    40    13    72 1   
    41    14    15 1   
    42    14    73 1   
    43    14    74 1   
    44    15    16 1   
    45    15    75 1   
    46    15    76 1   
    47    16    17 1   
    48    16    77 1   
    49    16    78 1   
    50    17    18 1   
    51    17    79 1   
    52    17    80 1   
    53    18    81 1   
    54    18    82 1   
    55    18    83 1   
    56    19    41 1   
    57    19    84 1   
    58    19    85 1   
    59    20    21 1   
    60    20    44 1   
    61    20    86 1   
    62    20    87 1   
    63    21    22 1   
    64    21    45 1   
    65    21    88 1   
    66    22    46 1   
    67    22    89 1   
    68    22    90 1   
    69    23    24 1   
    70    23    91 1   
    71    23    92 1   
    72    23   124 1   
    73    24    25 1   
    74    24    93 1   
    75    24    94 1   
    76    25    26 1   
    77    25    95 1   
    78    25    96 1   
    79    26    27 1   
    80    26    97 1   
    81    26    98 1   
    82    27    28 1   
    83    27    99 1   
    84    27   100 1   
    85    28    29 1   
    86    28   101 1   
    87    28   102 1   
    88    29    30 1   
    89    29   103 1   
    90    29   104 1   
    91    30    31 1   
    92    30    32 1   
    93    30   105 1   
    94    31    32 1   
    95    31   106 1   
    96    31   107 1   
    97    32    33 1   
    98    32   108 1   
    99    33    34 1   
   100    33   109 1   
   101    33   110 1   
   102    34    35 1   
   103    34   111 1   
   104    34   112 1   
   105    35    36 1   
   106    35   113 1   
   107    35   114 1   
   108    36    37 1   
   109    36   115 1   
   110    36   116 1   
   111    37    38 1   
   112    37   117 1   
   113    37   118 1   
   114    38   119 1   
   115    38   120 1   
   116    38   121 1   
   117    41    49 1   
   118    42    49 1   
   119    43    49 1   
   120    44    49 1   
   121    45   122 1   
   122    46   123 1   
   123    47   124 1   
   124    48   124 2   
@<TRIPOS>SUBSTRUCTURE
     1 GOT         1 TEMP              0 ****  ****    0 ROOT
