@<TRIPOS>MOLECULE
GOU
   33    35     1     0     0
SMALL
abcg2


@<TRIPOS>ATOM
      1 C15          2.8460    39.8220    25.7300 cc         1 GOU      -0.211000
      2 C17          1.1600    39.6770    23.7380 c3         1 GOU      -0.098000
      3 C02          4.2870    36.8850    29.1000 cc         1 GOU       0.420700
      4 C04          5.5700    37.3810    27.4000 ca         1 GOU       0.153500
      5 C06          7.1190    37.2170    25.8310 ca         1 GOU       0.414900
      6 C08          6.8500    35.4400    27.2410 ca         1 GOU       0.318000
      7 C09          5.8420    36.1090    27.9140 ca         1 GOU      -0.078600
      8 C11          3.8870    39.1290    28.0110 c3         1 GOU       0.057300
      9 C14          1.7320    39.2510    25.0540 cc         1 GOU       0.275300
     10 C16          2.9450    39.0910    26.8590 cd         1 GOU       0.139300
     11 C18          0.0920    38.7230    23.2180 c3         1 GOU      -0.085600
     12 C19          0.6220    41.1060    23.8460 c3         1 GOU      -0.085600
     13 N01          5.0240    35.8260    28.9790 nd         1 GOU      -0.510100
     14 N03          4.5690    37.8660    28.1820 na         1 GOU      -0.295300
     15 N05          6.1630    37.9670    26.3810 nb         1 GOU      -0.260000
     16 N07          7.4750    35.9750    26.2290 nb         1 GOU      -0.258000
     17 N13          1.2360    38.2640    25.7420 nd         1 GOU      -0.348300
     18 O12          1.9870    38.1610    26.8770 os         1 GOU      -0.070700
     19 CL2          7.3080    33.8530    27.7280 cl         1 GOU      -0.129000
     20 H1           3.4720    40.6390    25.4110 ha         1 GOU       0.156000
     21 H2           1.9920    39.6880    23.0270 hc         1 GOU       0.060700
     22 H3           3.5150    37.0320    29.8430 h5         1 GOU       0.071800
     23 H4           4.6180    39.9200    27.8490 h1         1 GOU       0.085200
     24 H5           3.3590    39.3560    28.9390 h1         1 GOU       0.085200
     25 H6           0.4740    37.7080    23.1040 hc         1 GOU       0.041367
     26 H7          -0.7680    38.6860    23.8870 hc         1 GOU       0.041367
     27 H8          -0.2590    39.0590    22.2430 hc         1 GOU       0.041367
     28 H9           1.3890    41.8060    24.1790 hc         1 GOU       0.041367
     29 H10          0.2630    41.4460    22.8740 hc         1 GOU       0.041367
     30 H11         -0.2100    41.1560    24.5490 hc         1 GOU       0.041367
     31 H12          8.4230    37.1360    24.2730 hn         1 GOU       0.502000
     32 H13          7.4910    38.5770    24.3650 hn         1 GOU       0.502000
     33 N10          7.8160    37.7340    24.8050 nv         1 GOU      -1.058900
@<TRIPOS>BOND
     1     1     9 1   
     2     1    10 2   
     3     1    20 1   
     4     2     9 1   
     5     2    11 1   
     6     2    12 1   
     7     2    21 1   
     8     3    13 2   
     9     3    14 1   
    10     3    22 1   
    11     4     7 ar  
    12     4    14 1   
    13     4    15 ar  
    14     5    15 ar  
    15     5    16 ar  
    16     5    33 1   
    17     6     7 ar  
    18     6    16 ar  
    19     6    19 1   
    20     7    13 1   
    21     8    10 1   
    22     8    14 1   
    23     8    23 1   
    24     8    24 1   
    25     9    17 2   
    26    10    18 1   
    27    11    25 1   
    28    11    26 1   
    29    11    27 1   
    30    12    28 1   
    31    12    29 1   
    32    12    30 1   
    33    17    18 1   
    34    31    33 1   
    35    32    33 1   
@<TRIPOS>SUBSTRUCTURE
     1 GOU         1 TEMP              0 ****  ****    0 ROOT
