@<TRIPOS>MOLECULE
GOU
   33    35     1     0     0
SMALL
No Charge or Current Charge


@<TRIPOS>ATOM
      1 C15          2.9160    39.4270    25.7790 cc         1 GOU      -0.211000
      2 C17          1.2070    39.6960    23.8920 c3         1 GOU      -0.098000
      3 C02          4.1410    36.6750    28.9320 cc         1 GOU       0.420700
      4 C04          5.5380    37.4110    27.3410 ca         1 GOU       0.153500
      5 C06          7.1990    37.3490    25.7920 ca         1 GOU       0.414900
      6 C08          6.7730    35.4100    26.9230 ca         1 GOU       0.318000
      7 C09          5.7580    36.0860    27.6310 ca         1 GOU      -0.078600
      8 C11          3.9250    39.1310    28.1570 c3         1 GOU       0.057300
      9 C14          1.5840    39.5450    25.3490 cc         1 GOU       0.275300
     10 C16          2.8430    39.3080    27.1260 cd         1 GOU       0.139300
     11 C18          0.3950    38.4840    23.3790 c3         1 GOU      -0.085600
     12 C19          0.4750    41.0300    23.6180 c3         1 GOU      -0.085600
     13 N01          4.8980    35.6040    28.6230 nd         1 GOU      -0.510100
     14 N03          4.5170    37.7810    28.1670 na         1 GOU      -0.295300
     15 N05          6.2520    38.0770    26.4140 nb         1 GOU      -0.260000
     16 N07          7.5050    36.0530    25.9880 nb         1 GOU      -0.258000
     17 N13          0.7100    39.5050    26.3440 nd         1 GOU      -0.348300
     18 O12          1.5310    39.3480    27.5190 os         1 GOU      -0.070700
     19 Cl2          7.1390    33.7120    27.2120 cl         1 GOU      -0.129000
     20 H1           3.8020    39.4270    25.1540 ha         1 GOU       0.156000
     21 H2           2.1350    39.7220    23.3070 hc         1 GOU       0.060700
     22 H3           3.3410    36.7130    29.6620 h5         1 GOU       0.071800
     23 H4           4.7150    39.8690    27.9690 h1         1 GOU       0.085200
     24 H5           3.5090    39.3430    29.1500 h1         1 GOU       0.085200
     25 H6           0.9490    37.5520    23.5420 hc         1 GOU       0.041367
     26 H7          -0.5670    38.4070    23.9000 hc         1 GOU       0.041367
     27 H8           0.1960    38.5770    22.3040 hc         1 GOU       0.041367
     28 H9           1.0850    41.8790    23.9510 hc         1 GOU       0.041367
     29 H10          0.2800    41.1520    22.5460 hc         1 GOU       0.041367
     30 H11         -0.4840    41.0680    24.1480 hc         1 GOU       0.041367
     31 H12          8.4910    37.4470    24.2110 hn         1 GOU       0.502000
     32 H13          7.6000    38.9000    24.5190 hn         1 GOU       0.502000
     33 N10          7.9300    37.9990    24.8560 nv         1 GOU      -1.058900
@<TRIPOS>BOND
     1     1     9 1   
     2     1    10 2   
     3     1    20 1   
     4     2     9 1   
     5     2    11 1   
     6     2    12 1   
     7     2    21 1   
     8     3    13 2   
     9     3    14 1   
    10     3    22 1   
    11     4     7 ar  
    12     4    14 1   
    13     4    15 ar  
    14     5    15 ar  
    15     5    16 ar  
    16     5    33 1   
    17     6     7 ar  
    18     6    16 ar  
    19     6    19 1   
    20     7    13 1   
    21     8    10 1   
    22     8    14 1   
    23     8    23 1   
    24     8    24 1   
    25     9    17 2   
    26    10    18 1   
    27    11    25 1   
    28    11    26 1   
    29    11    27 1   
    30    12    28 1   
    31    12    29 1   
    32    12    30 1   
    33    17    18 1   
    34    31    33 1   
    35    32    33 1   
@<TRIPOS>SUBSTRUCTURE
     1 GOU         1 TEMP              0 ****  ****    0 ROOT
