@<TRIPOS>MOLECULE
GOV
   30    30     1     0     0
SMALL
No Charge or Current Charge


@<TRIPOS>ATOM
      1 C4           0.5310     0.8050     0.3330 ca         1 GOV      -0.104000
      2 C5           0.9790     1.8580    -0.4850 ca         1 GOV      -0.064000
      3 C6           2.2430     1.7880    -1.0960 ca         1 GOV      -0.217000
      4 C7           3.0670     0.6690    -0.8920 ca         1 GOV       0.096000
      5 C8           2.6330    -0.3920    -0.0680 ca         1 GOV       0.006000
      6 C10          3.3490    -2.3170     1.1160 c1         1 GOV      -0.019000
      7 N           -1.8660     0.3240     0.0930 n7         1 GOV      -0.290000
      8 C           -5.6860    -0.1820     0.0880 c3         1 GOV      -0.246000
      9 O            3.4690    -1.4840     0.1010 os         1 GOV      -0.119000
     10 C1          -4.2270    -0.2680    -0.3960 c3         1 GOV       0.034000
     11 C2          -3.2390     0.3450     0.6210 c3         1 GOV      -0.071000
     12 C3          -0.8400     0.8770     0.9860 c3         1 GOV      -0.031000
     13 C9           1.3540    -0.3200     0.5380 ca         1 GOV      -0.092000
     14 O1           4.2910     0.6210    -1.4970 oh         1 GOV      -0.235000
     15 O2          -3.9040    -1.6420    -0.6090 oh         1 GOV      -0.334000
     16 H1           0.3450     2.7270    -0.6510 ha         1 GOV       0.150000
     17 H2           2.5790     2.6070    -1.7300 ha         1 GOV       0.135000
     18 H3           3.1880    -2.8540     2.0240 ha         1 GOV       0.024000
     19 H4          -1.6190    -0.6410    -0.1330 hn         1 GOV       0.169000
     20 H7          -5.9770     0.8620     0.2520 hc         1 GOV       0.081333
     21 H8          -6.3690    -0.6090    -0.6570 hc         1 GOV       0.081333
     22 H9          -4.1420     0.2870    -1.3420 h1         1 GOV       0.082000
     23 H10         -3.2970    -0.2180     1.5620 h1         1 GOV       0.075000
     24 H11         -3.5420     1.3790     0.8340 h1         1 GOV       0.075000
     25 H12         -0.8210     0.3210     1.9330 h1         1 GOV       0.075500
     26 H13         -1.0720     1.9230     1.2280 h1         1 GOV       0.075500
     27 H14          0.9870    -1.1320     1.1620 ha         1 GOV       0.145000
     28 H15         -4.5420    -1.9940    -1.2570 ho         1 GOV       0.204000
     29 H5           4.4100     1.4350    -2.0180 ho         1 GOV       0.230000
     30 H6          -5.8200    -0.7270     1.0300 hc         1 GOV       0.081333
@<TRIPOS>BOND
     1     1     2 ar  
     2     1    12 1   
     3     1    13 ar  
     4     2     3 ar  
     5     2    16 1   
     6     3     4 ar  
     7     3    17 1   
     8     4     5 ar  
     9     4    14 1   
    10     5     9 1   
    11     5    13 ar  
    12     6     9 1   
    13     6    18 1   
    14     7    11 1   
    15     7    12 1   
    16     7    19 1   
    17     8    10 1   
    18     8    20 1   
    19     8    21 1   
    20     8    30 1   
    21    10    11 1   
    22    10    15 1   
    23    10    22 1   
    24    11    23 1   
    25    11    24 1   
    26    12    25 1   
    27    12    26 1   
    28    13    27 1   
    29    14    29 1   
    30    15    28 1   
@<TRIPOS>SUBSTRUCTURE
     1 GOV         1 TEMP              0 ****  ****    0 ROOT
