@<TRIPOS>MOLECULE
GOV
   30    30     1     0     0
SMALL
bcc


@<TRIPOS>ATOM
      1 C4           0.4060     0.2960     0.3900 ca         1 GOV      -0.104000
      2 C5           0.6820     1.1960    -0.6350 ca         1 GOV      -0.064000
      3 C6           1.9530     1.3040    -1.1760 ca         1 GOV      -0.217000
      4 C7           2.9960     0.5110    -0.7040 ca         1 GOV       0.096000
      5 C8           2.7110    -0.3850     0.3200 ca         1 GOV       0.006000
      6 C10          4.6420    -0.7050     1.5150 c1         1 GOV      -0.019000
      7 N           -2.0030     0.1990    -0.0150 n7         1 GOV      -0.290000
      8 C           -5.7980     0.2290     0.0870 c3         1 GOV      -0.246000
      9 O            3.7160    -1.2330     0.7740 os         1 GOV      -0.119000
     10 C1          -4.4070     0.1440    -0.5210 c3         1 GOV       0.034000
     11 C2          -3.3350     0.1630     0.5540 c3         1 GOV      -0.071000
     12 C3          -0.9680     0.2000     0.9980 c3         1 GOV      -0.031000
     13 C9           1.4450    -0.5020     0.8560 ca         1 GOV      -0.092000
     14 O1           4.2500     0.5540    -1.1830 oh         1 GOV      -0.235000
     15 O2          -4.2310    -1.0520    -1.2620 oh         1 GOV      -0.334000
     16 H1          -0.1100     1.8210    -1.0250 ha         1 GOV       0.150000
     17 H2           2.1390     2.0110    -1.9760 ha         1 GOV       0.135000
     18 H3           5.3090    -1.5660     1.7180 ha         1 GOV       0.024000
     19 H4          -1.8760    -0.6080    -0.6150 hn         1 GOV       0.169000
     20 H7          -5.9260     1.1690     0.6270 hc         1 GOV       0.081333
     21 H8          -6.5670     0.1880    -0.6860 hc         1 GOV       0.081333
     22 H9          -4.2510     1.0180    -1.1690 h1         1 GOV       0.082000
     23 H10         -3.4890    -0.6950     1.2300 h1         1 GOV       0.075000
     24 H11         -3.4740     1.0600     1.1630 h1         1 GOV       0.075000
     25 H12         -1.0090    -0.6810     1.6580 h1         1 GOV       0.075500
     26 H13         -1.1350     1.0650     1.6480 h1         1 GOV       0.075500
     27 H14          1.2710    -1.2280     1.6430 ha         1 GOV       0.145000
     28 H15         -4.8140    -1.0240    -2.0270 ho         1 GOV       0.204000
     29 H5           4.3110     1.1880    -1.9070 ho         1 GOV       0.230000
     30 H6          -5.9760    -0.5900     0.7870 hc         1 GOV       0.081333
@<TRIPOS>BOND
     1     1     2 1   
     2     1    12 1   
     3     1    13 1   
     4     2     3 1   
     5     2    16 1   
     6     3     4 1   
     7     3    17 1   
     8     4     5 1   
     9     4    14 1   
    10     5     9 1   
    11     5    13 1   
    12     6     9 1   
    13     6    18 1   
    14     7    11 1   
    15     7    12 1   
    16     7    19 1   
    17     8    10 1   
    18     8    20 1   
    19     8    21 1   
    20     8    30 1   
    21    10    11 1   
    22    10    15 1   
    23    10    22 1   
    24    11    23 1   
    25    11    24 1   
    26    12    25 1   
    27    12    26 1   
    28    13    27 1   
    29    14    29 1   
    30    15    28 1   
@<TRIPOS>SUBSTRUCTURE
     1 GOV         1 TEMP              0 ****  ****    0 ROOT
