@<TRIPOS>MOLECULE
GOW
   34    35     1     0     0
SMALL
No Charge or Current Charge


@<TRIPOS>ATOM
      1 O14          1.1650    -1.7090     0.4570 o          1 GOW      -0.574100
      2 C13          1.6800    -0.6310     0.1790 c          1 GOW       0.617700
      3 C15          3.1860    -0.4980     0.0210 ca         1 GOW      -0.155600
      4 C20          4.0070    -1.6380     0.1900 ca         1 GOW      -0.071500
      5 C19          5.4020    -1.5480     0.0510 ca         1 GOW      -0.119000
      6 C18          6.0020    -0.3190    -0.2600 ca         1 GOW      -0.086000
      7 C17          5.2040     0.8220    -0.4320 ca         1 GOW      -0.119000
      8 C16          3.8070     0.7380    -0.2940 ca         1 GOW      -0.071500
      9 N12          0.9490     0.5380     0.0050 ns         1 GOW      -0.159000
     10 C11         -0.4500     0.8150     0.0360 ca         1 GOW      -0.040000
     11 C02         -0.8640     2.1660     0.0970 ca         1 GOW      -0.085300
     12 C01          0.1540     3.3030     0.1450 c3         1 GOW      -0.051800
     13 C10         -1.4290    -0.2040    -0.0180 ca         1 GOW      -0.052000
     14 C05         -2.8100     0.0990     0.0040 ca         1 GOW      -0.140600
     15 C04         -3.2010     1.4550     0.0800 ca         1 GOW      -0.098000
     16 C03         -2.2360     2.4720     0.1230 ca         1 GOW      -0.103000
     17 C06         -3.8210    -1.0330    -0.0550 c          1 GOW       0.621700
     18 O07         -3.4800    -2.2100    -0.0620 o          1 GOW      -0.569100
     19 N08         -5.1650    -0.6690    -0.0870 ns         1 GOW      -0.390400
     20 O09         -6.1970    -1.6400    -0.3960 oh         1 GOW      -0.418100
     21 H1           3.5650    -2.6030     0.4320 ha         1 GOW       0.124500
     22 H2           6.0190    -2.4350     0.1850 ha         1 GOW       0.118500
     23 H3           7.0830    -0.2510    -0.3680 ha         1 GOW       0.116000
     24 H4           5.6680     1.7750    -0.6730 ha         1 GOW       0.118500
     25 H5           3.2260     1.6470    -0.4360 ha         1 GOW       0.124500
     26 H6           1.5160     1.3530    -0.1810 hn         1 GOW       0.158000
     27 H7           0.7690     3.3210    -0.7630 hc         1 GOW       0.045700
     28 H8          -0.3310     4.2830     0.2290 hc         1 GOW       0.045700
     29 H9           0.8250     3.1980     1.0060 hc         1 GOW       0.045700
     30 H10         -1.1300    -1.2450    -0.0940 ha         1 GOW       0.154000
     31 H11         -4.2490     1.7430     0.1080 ha         1 GOW       0.113000
     32 H12         -2.5620     3.5090     0.1770 ha         1 GOW       0.116000
     33 H13         -5.4100     0.3060    -0.2400 hn         1 GOW       0.340500
     34 H14         -6.8590    -1.5130     0.3240 ho         1 GOW       0.443000
@<TRIPOS>BOND
     1     1     2 2   
     2     2     3 1   
     3     2     9 1   
     4     3     4 ar  
     5     3     8 ar  
     6     4     5 ar  
     7     4    21 1   
     8     5     6 ar  
     9     5    22 1   
    10     6     7 ar  
    11     6    23 1   
    12     7     8 ar  
    13     7    24 1   
    14     8    25 1   
    15     9    10 1   
    16     9    26 1   
    17    10    11 ar  
    18    10    13 ar  
    19    11    12 1   
    20    11    16 ar  
    21    12    27 1   
    22    12    28 1   
    23    12    29 1   
    24    13    14 ar  
    25    13    30 1   
    26    14    15 ar  
    27    14    17 1   
    28    15    16 ar  
    29    15    31 1   
    30    16    32 1   
    31    17    18 2   
    32    17    19 1   
    33    19    20 1   
    34    19    33 1   
    35    20    34 1   
@<TRIPOS>SUBSTRUCTURE
     1 GOW         1 TEMP              0 ****  ****    0 ROOT
