@<TRIPOS>MOLECULE
GOW
   34    35     1     0     0
SMALL
bcc


@<TRIPOS>ATOM
      1 O14          0.9740    -1.2220     0.9280 o          1 GOW      -0.574100
      2 C13          1.5600    -0.3540     0.3040 c          1 GOW       0.684700
      3 C15          3.0300    -0.4250     0.0600 ca         1 GOW      -0.155600
      4 C20          3.8130    -1.1340     0.9690 ca         1 GOW      -0.089500
      5 C19          5.1820    -1.2390     0.7800 ca         1 GOW      -0.137000
      6 C18          5.7790    -0.6540    -0.3300 ca         1 GOW      -0.104000
      7 C17          5.0020     0.0370    -1.2490 ca         1 GOW      -0.137000
      8 C16          3.6330     0.1550    -1.0550 ca         1 GOW      -0.089500
      9 N12          0.9390     0.7430    -0.2020 ns         1 GOW      -0.485100
     10 C11         -0.4380     1.0050    -0.0930 ca         1 GOW       0.052600
     11 C02         -0.8540     2.2790     0.3140 ca         1 GOW      -0.085300
     12 C01          0.1420     3.3470     0.6520 c3         1 GOW      -0.051800
     13 C10         -1.3690     0.0280    -0.4160 ca         1 GOW      -0.070000
     14 C05         -2.7310     0.2860    -0.3080 ca         1 GOW      -0.140600
     15 C04         -3.1550     1.5500     0.0900 ca         1 GOW      -0.116000
     16 C03         -2.2200     2.5290     0.3860 ca         1 GOW      -0.121000
     17 C06         -3.6710    -0.8070    -0.6980 c          1 GOW       0.688700
     18 O07         -3.3650    -1.6680    -1.5070 o          1 GOW      -0.569100
     19 N08         -4.8540    -0.7820    -0.0610 ns         1 GOW      -0.457400
     20 O09         -5.8570    -1.6120    -0.4540 oh         1 GOW      -0.379100
     21 H1           3.3510    -1.5960     1.8320 ha         1 GOW       0.142500
     22 H2           5.7830    -1.7800     1.4990 ha         1 GOW       0.136500
     23 H3           6.8470    -0.7430    -0.4810 ha         1 GOW       0.134000
     24 H4           5.4590     0.4810    -2.1230 ha         1 GOW       0.136500
     25 H5           3.0440     0.6780    -1.7980 ha         1 GOW       0.142500
     26 H6           1.5170     1.4940    -0.5470 hn         1 GOW       0.324500
     27 H7           0.6920     3.6790    -0.2330 hc         1 GOW       0.045700
     28 H8          -0.3520     4.2200     1.0720 hc         1 GOW       0.045700
     29 H9           0.8790     2.9950     1.3750 hc         1 GOW       0.045700
     30 H10         -1.0380    -0.9380    -0.7680 ha         1 GOW       0.172000
     31 H11         -4.2060     1.8020     0.1500 ha         1 GOW       0.131000
     32 H12         -2.5600     3.5110     0.6880 ha         1 GOW       0.134000
     33 H13         -5.1220    -0.0730     0.6060 hn         1 GOW       0.340500
     34 H14         -5.8010    -2.3940     0.1110 ho         1 GOW       0.404000
@<TRIPOS>BOND
     1     1     2 2   
     2     2     3 1   
     3     2     9 1   
     4     3     4 ar  
     5     3     8 ar  
     6     4     5 ar  
     7     4    21 1   
     8     5     6 ar  
     9     5    22 1   
    10     6     7 ar  
    11     6    23 1   
    12     7     8 ar  
    13     7    24 1   
    14     8    25 1   
    15     9    10 1   
    16     9    26 1   
    17    10    11 ar  
    18    10    13 ar  
    19    11    12 1   
    20    11    16 ar  
    21    12    27 1   
    22    12    28 1   
    23    12    29 1   
    24    13    14 ar  
    25    13    30 1   
    26    14    15 ar  
    27    14    17 1   
    28    15    16 ar  
    29    15    31 1   
    30    16    32 1   
    31    17    18 2   
    32    17    19 1   
    33    19    20 1   
    34    19    33 1   
    35    20    34 1   
@<TRIPOS>SUBSTRUCTURE
     1 GOW         1 TEMP              0 ****  ****    0 ROOT
