@<TRIPOS>MOLECULE
GOX
   25    25     1     0     0
SMALL
No Charge or Current Charge


@<TRIPOS>ATOM
      1 C1          -0.3300     1.2270    -0.0190 c2         1 GOX       0.555200
      2 N1          -1.1550     2.2170     0.1590 n2         1 GOX      -0.442700
      3 C2           1.1030     1.2240     0.5750 c6         1 GOX       0.113000
      4 N5          -0.7340     0.1510    -0.7980 nu         1 GOX      -0.863400
      5 O7          -2.4500     2.0900    -0.4310 oh         1 GOX      -0.531000
      6 O2           2.0760     1.7300    -0.3860 oh         1 GOX      -0.698000
      7 C3           1.5050    -0.2160     1.0290 c6         1 GOX       0.135300
      8 O3           0.7450    -0.6280     2.1830 oh         1 GOX      -0.658000
      9 C4           1.3250    -1.2090    -0.1710 c6         1 GOX       0.184300
     10 O4           2.2380    -0.8340    -1.2230 oh         1 GOX      -0.692000
     11 C5          -0.1510    -1.2160    -0.7200 c6         1 GOX       0.224500
     12 C6          -1.1090    -2.1590     0.0870 c3         1 GOX       0.130600
     13 O6          -2.4190    -2.2540    -0.5100 oh         1 GOX      -0.667000
     14 HC2          1.1060     1.8690     1.4660 h1         1 GOX       0.048700
     15 HN5         -1.7290     0.2150    -1.0050 hn         1 GOX       0.498000
     16 HO7         -2.9320     2.9230    -0.2010 ho         1 GOX       0.463000
     17 HO2          1.8700     2.6870    -0.5280 ho         1 GOX       0.521000
     18 HC3          2.5720    -0.2040     1.2980 h1         1 GOX       0.048700
     19 HO3          1.1470    -0.1900     2.9680 ho         1 GOX       0.453000
     20 HC4          1.5740    -2.2250     0.1710 h1         1 GOX       0.047700
     21 HO4          2.2940     0.1580    -1.1420 ho         1 GOX       0.510000
     22 HC5         -0.1120    -1.6480    -1.7320 h1         1 GOX       0.092700
     23 HC61        -0.6470    -3.1550     0.1370 h1         1 GOX       0.039200
     24 HC62        -1.2000    -1.7870     1.1150 h1         1 GOX       0.039200
     25 HO6         -2.9570    -2.8450     0.0640 ho         1 GOX       0.449000
@<TRIPOS>BOND
     1     1     2 2   
     2     1     3 1   
     3     1     4 1   
     4     2     5 1   
     5     3     6 1   
     6     3     7 1   
     7     3    14 1   
     8     4    11 1   
     9     4    15 1   
    10     5    16 1   
    11     6    17 1   
    12     7     8 1   
    13     7     9 1   
    14     7    18 1   
    15     8    19 1   
    16     9    10 1   
    17     9    11 1   
    18     9    20 1   
    19    10    21 1   
    20    11    12 1   
    21    11    22 1   
    22    12    13 1   
    23    12    23 1   
    24    12    24 1   
    25    13    25 1   
@<TRIPOS>SUBSTRUCTURE
     1 GOX         1 TEMP              0 ****  ****    0 ROOT
