@<TRIPOS>MOLECULE
GOX
   25    25     1     0     0
SMALL
abcg2


@<TRIPOS>ATOM
      1 C1          -0.4230     1.1520     0.0130 c2         1 GOX       0.555200
      2 N1          -1.2010     2.1240     0.3130 n2         1 GOX      -0.442700
      3 C2           0.9730     1.2460     0.5750 c6         1 GOX       0.113000
      4 N5          -0.6970     0.1460    -0.8600 nu         1 GOX      -0.863400
      5 O7          -2.4310     2.0090    -0.3200 oh         1 GOX      -0.531000
      6 O2           1.8460     1.8450    -0.3510 oh         1 GOX      -0.698000
      7 C3           1.5070    -0.1400     0.9320 c6         1 GOX       0.135300
      8 O3           0.8240    -0.6440     2.0530 oh         1 GOX      -0.658000
      9 C4           1.3050    -1.1490    -0.2020 c6         1 GOX       0.184300
     10 O4           2.1240    -0.8560    -1.3070 oh         1 GOX      -0.692000
     11 C5          -0.1340    -1.1880    -0.7090 c6         1 GOX       0.224500
     12 C6          -1.0470    -2.0810     0.1250 c3         1 GOX       0.130600
     13 O6          -2.2590    -2.2230    -0.5880 oh         1 GOX      -0.667000
     14 HC2          0.9170     1.8420     1.4950 h1         1 GOX       0.048700
     15 HN5         -1.6420     0.1360    -1.2150 hn         1 GOX       0.498000
     16 HO7         -2.9420     2.7400     0.0380 ho         1 GOX       0.463000
     17 HO2          1.5780     2.7640    -0.4570 ho         1 GOX       0.521000
     18 HC3          2.5840    -0.0510     1.1360 h1         1 GOX       0.048700
     19 HO3          0.9870    -0.0630     2.8030 ho         1 GOX       0.453000
     20 HC4          1.5440    -2.1450     0.2010 h1         1 GOX       0.047700
     21 HO4          3.0260    -0.7260    -0.9990 ho         1 GOX       0.510000
     22 HC5         -0.0900    -1.6370    -1.7070 h1         1 GOX       0.092700
     23 HC61        -0.5580    -3.0530     0.2760 h1         1 GOX       0.039200
     24 HC62        -1.2150    -1.6390     1.1100 h1         1 GOX       0.039200
     25 HO6         -2.9450    -2.4860     0.0310 ho         1 GOX       0.449000
@<TRIPOS>BOND
     1     1     2 2   
     2     1     3 1   
     3     1     4 1   
     4     2     5 1   
     5     3     6 1   
     6     3     7 1   
     7     3    14 1   
     8     4    11 1   
     9     4    15 1   
    10     5    16 1   
    11     6    17 1   
    12     7     8 1   
    13     7     9 1   
    14     7    18 1   
    15     8    19 1   
    16     9    10 1   
    17     9    11 1   
    18     9    20 1   
    19    10    21 1   
    20    11    12 1   
    21    11    22 1   
    22    12    13 1   
    23    12    23 1   
    24    12    24 1   
    25    13    25 1   
@<TRIPOS>SUBSTRUCTURE
     1 GOX         1 TEMP              0 ****  ****    0 ROOT
