@<TRIPOS>MOLECULE
GOY
   34    35     1     0     0
SMALL
bcc


@<TRIPOS>ATOM
      1 N1          -1.1500     0.0090     0.9020 n          1 GOY      -0.477800
      2 C4           3.0260     0.3120    -1.1180 c6         1 GOY      -0.097400
      3 C5          -0.1380     0.8890     0.6020 c          1 GOY       0.779100
      4 C6          -2.4250     0.5650     1.3300 c6         1 GOY       0.096000
      5 C7          -3.3680     0.8110     0.1570 c6         1 GOY      -0.097400
      6 C8          -3.5630    -0.4730    -0.6420 c6         1 GOY      -0.073900
      7 C10         -1.3100    -1.2460     0.1710 c6         1 GOY       0.096000
      8 N            1.0910     0.3300     0.3590 n          1 GOY      -0.477800
      9 C            3.6110    -0.8690    -0.3540 c6         1 GOY      -0.073900
     10 O           -0.3210     2.1010     0.5580 o          1 GOY      -0.630100
     11 C1           2.5060    -1.6720     0.3230 c6         1 GOY      -0.097400
     12 C2           1.6260    -0.7610     1.1650 c6         1 GOY       0.096000
     13 C3           2.1270     1.1620    -0.2290 c6         1 GOY       0.096000
     14 C9          -2.2170    -1.0660    -1.0420 c6         1 GOY      -0.097400
     15 H2           2.4420    -0.0470    -1.9710 hc         1 GOY       0.048700
     16 H3          -2.8820    -0.1580     2.0150 h1         1 GOY       0.051450
     17 H4          -2.2550     1.4770     1.8980 h1         1 GOY       0.051450
     18 H5          -4.3250     1.1810     0.5310 hc         1 GOY       0.048700
     19 H6          -2.9480     1.5920    -0.4820 hc         1 GOY       0.048700
     20 H7          -4.1060    -1.2010    -0.0270 hc         1 GOY       0.039950
     21 H8          -4.1790    -0.2880    -1.5240 hc         1 GOY       0.039950
     22 H9          -0.3460    -1.6330    -0.1460 h1         1 GOY       0.051450
     23 H10         -1.7460    -1.9850     0.8510 h1         1 GOY       0.051450
     24 H11          4.1960    -1.5070    -1.0210 hc         1 GOY       0.039950
     25 H12          4.3020    -0.4960     0.4090 hc         1 GOY       0.039950
     26 H13          1.8930    -2.1750    -0.4310 hc         1 GOY       0.048700
     27 H14          2.9310    -2.4500     0.9610 hc         1 GOY       0.048700
     28 H15          2.2280    -0.3360     1.9810 h1         1 GOY       0.051450
     29 H16          0.8190    -1.3170     1.6350 h1         1 GOY       0.051450
     30 H17          2.7280     1.6410     0.5560 h1         1 GOY       0.051450
     31 H18          1.6670     1.9560    -0.8120 h1         1 GOY       0.051450
     32 H19         -2.3510    -2.0340    -1.5310 hc         1 GOY       0.048700
     33 H20         -1.7210    -0.4100    -1.7650 hc         1 GOY       0.048700
     34 H1           3.8240     0.9400    -1.5210 hc         1 GOY       0.048700
@<TRIPOS>BOND
     1     1     3 1   
     2     1     4 1   
     3     1     7 1   
     4     2     9 1   
     5     2    13 1   
     6     2    15 1   
     7     2    34 1   
     8     3     8 1   
     9     3    10 2   
    10     4     5 1   
    11     4    16 1   
    12     4    17 1   
    13     5     6 1   
    14     5    18 1   
    15     5    19 1   
    16     6    14 1   
    17     6    20 1   
    18     6    21 1   
    19     7    14 1   
    20     7    22 1   
    21     7    23 1   
    22     8    12 1   
    23     8    13 1   
    24     9    11 1   
    25     9    24 1   
    26     9    25 1   
    27    11    12 1   
    28    11    26 1   
    29    11    27 1   
    30    12    28 1   
    31    12    29 1   
    32    13    30 1   
    33    13    31 1   
    34    14    32 1   
    35    14    33 1   
@<TRIPOS>SUBSTRUCTURE
     1 GOY         1 TEMP              0 ****  ****    0 ROOT
