@<TRIPOS>MOLECULE
GOY
   34    35     1     0     0
SMALL
No Charge or Current Charge


@<TRIPOS>ATOM
      1 N1          -1.2260     0.1230     0.7060 n          1 GOY      -0.410800
      2 C4           3.3820     0.3430    -1.0250 c6         1 GOY      -0.097400
      3 C5          -0.0800     0.9280     0.5080 c          1 GOY       0.645100
      4 C6          -2.4750     0.6740     1.2970 c6         1 GOY       0.096000
      5 C7          -3.5980     0.8040     0.2420 c6         1 GOY      -0.097400
      6 C8          -3.8560    -0.5540    -0.4500 c6         1 GOY      -0.073900
      7 C10         -1.4260    -1.1930     0.0310 c6         1 GOY       0.096000
      8 N            1.1510     0.3120     0.1950 n          1 GOY      -0.410800
      9 C            3.8880    -0.8180    -0.1480 c6         1 GOY      -0.073900
     10 O           -0.1570     2.1470     0.5950 o          1 GOY      -0.630100
     11 C1           2.6990    -1.7040     0.2740 c6         1 GOY      -0.097400
     12 C2           1.6130    -0.8690     0.9900 c6         1 GOY       0.096000
     13 C3           2.2740     1.1550    -0.3110 c6         1 GOY       0.096000
     14 C9          -2.5420    -1.1170    -1.0410 c6         1 GOY      -0.097400
     15 H2           2.9870    -0.0540    -1.9710 hc         1 GOY       0.048700
     16 H3          -2.8090     0.0020     2.1000 h1         1 GOY       0.051450
     17 H4          -2.2880     1.6540     1.7600 h1         1 GOY       0.051450
     18 H5          -4.5190     1.1660     0.7180 hc         1 GOY       0.048700
     19 H6          -3.3130     1.5560    -0.5070 hc         1 GOY       0.048700
     20 H7          -4.2720    -1.2680     0.2750 hc         1 GOY       0.039950
     21 H8          -4.6060    -0.4370    -1.2440 hc         1 GOY       0.039950
     22 H9          -0.5070    -1.5270    -0.4680 h1         1 GOY       0.051450
     23 H10         -1.6880    -1.9470     0.7860 h1         1 GOY       0.051450
     24 H11          4.6280    -1.4150    -0.6990 hc         1 GOY       0.039950
     25 H12          4.3970    -0.4230     0.7420 hc         1 GOY       0.039950
     26 H13          2.2640    -2.1900    -0.6090 hc         1 GOY       0.048700
     27 H14          3.0470    -2.5080     0.9370 hc         1 GOY       0.048700
     28 H15          2.0300    -0.4940     1.9360 h1         1 GOY       0.051450
     29 H16          0.7790    -1.5240     1.2680 h1         1 GOY       0.051450
     30 H17          2.7150     1.6980     0.5380 h1         1 GOY       0.051450
     31 H18          1.8820     1.9060    -1.0110 h1         1 GOY       0.051450
     32 H19         -2.7170    -2.1140    -1.4680 hc         1 GOY       0.048700
     33 H20         -2.2070    -0.4760    -1.8680 hc         1 GOY       0.048700
     34 H1           4.2160     1.0070    -1.2900 hc         1 GOY       0.048700
@<TRIPOS>BOND
     1     1     3 1   
     2     1     4 1   
     3     1     7 1   
     4     2     9 1   
     5     2    13 1   
     6     2    15 1   
     7     2    34 1   
     8     3     8 1   
     9     3    10 2   
    10     4     5 1   
    11     4    16 1   
    12     4    17 1   
    13     5     6 1   
    14     5    18 1   
    15     5    19 1   
    16     6    14 1   
    17     6    20 1   
    18     6    21 1   
    19     7    14 1   
    20     7    22 1   
    21     7    23 1   
    22     8    12 1   
    23     8    13 1   
    24     9    11 1   
    25     9    24 1   
    26     9    25 1   
    27    11    12 1   
    28    11    26 1   
    29    11    27 1   
    30    12    28 1   
    31    12    29 1   
    32    13    30 1   
    33    13    31 1   
    34    14    32 1   
    35    14    33 1   
@<TRIPOS>SUBSTRUCTURE
     1 GOY         1 TEMP              0 ****  ****    0 ROOT
