@<TRIPOS>MOLECULE
GOZ
   54    56     1     0     0
SMALL
abcg2


@<TRIPOS>ATOM
      1 C1          17.2640   -14.3900    22.4530 c          1 GOZ       0.614100
      2 C2          17.8750   -12.4050    21.2030 c5         1 GOZ       0.032700
      3 C3          16.5040   -12.1770    20.5670 c          1 GOZ       0.603100
      4 C4          14.5790   -10.6370    20.4620 c3         1 GOZ       0.145300
      5 C5          13.4920   -11.0800    21.4150 ca         1 GOZ      -0.011300
      6 C8          12.0070   -10.6570    23.2470 ca         1 GOZ       0.623900
      7 C9          12.9770   -10.1910    22.3480 ca         1 GOZ      -0.254500
      8 C6          13.0340   -12.3920    21.3940 ca         1 GOZ      -0.254500
      9 C7          12.0730   -12.7730    22.3380 ca         1 GOZ       0.623900
     10 C10         19.0140   -12.1040    20.2120 c5         1 GOZ      -0.083400
     11 C11         20.0910   -13.1280    20.5780 c5         1 GOZ      -0.094400
     12 C12         19.2810   -14.3730    20.9250 c5         1 GOZ       0.109000
     13 C13         18.1980   -15.8210    24.2870 c3         1 GOZ      -0.068100
     14 C14         19.5430   -15.1450    24.3130 ca         1 GOZ      -0.082300
     15 C15         19.6510   -13.7720    24.5410 ca         1 GOZ      -0.106500
     16 C16         20.8860   -13.1360    24.4910 ca         1 GOZ      -0.112000
     17 C17         22.0370   -13.8660    24.2120 ca         1 GOZ      -0.112000
     18 C18         21.9440   -15.2370    23.9920 ca         1 GOZ      -0.112000
     19 C19         20.7060   -15.8690    24.0440 ca         1 GOZ      -0.106500
     20 O1          16.3180   -13.7730    22.9570 o          1 GOZ      -0.620100
     21 N           16.2590   -16.5450    22.8460 n8         1 GOZ      -0.983200
     22 C           17.5340   -15.8290    22.8840 c3         1 GOZ       0.096500
     23 O           16.0440   -12.9600    19.7380 o          1 GOZ      -0.595100
     24 N1          18.0770   -13.8120    21.5580 n          1 GOZ      -0.391800
     25 N2          15.9020   -11.0310    20.9290 ns         1 GOZ      -0.492900
     26 N3          11.6320   -14.0760    22.4150 nv         1 GOZ      -1.052400
     27 N4          11.5680   -11.9210    23.2420 nb         1 GOZ      -0.804000
     28 N5          11.4180    -9.8080    24.1570 nv         1 GOZ      -1.052400
     29 H1          17.9680   -11.7940    22.1040 h1         1 GOZ       0.059700
     30 H2          14.5660    -9.5520    20.3550 h1         1 GOZ       0.064700
     31 H3          14.4310   -11.0840    19.4810 h1         1 GOZ       0.064700
     32 H4          13.3100    -9.1610    22.3860 ha         1 GOZ       0.127500
     33 H5          13.4230   -13.1090    20.6850 ha         1 GOZ       0.127500
     34 H6          19.3470   -11.0720    20.2910 hc         1 GOZ       0.062700
     35 H7          18.6640   -12.2790    19.1930 hc         1 GOZ       0.062700
     36 H8          20.7960   -13.3080    19.7670 hc         1 GOZ       0.057200
     37 H9          20.6480   -12.7990    21.4560 hc         1 GOZ       0.057200
     38 H10         19.0070   -14.9320    20.0260 h1         1 GOZ       0.057700
     39 H11         19.8090   -15.0340    21.6040 h1         1 GOZ       0.057700
     40 H12         17.5090   -15.3280    24.9770 hc         1 GOZ       0.057200
     41 H13         18.2970   -16.8630    24.6000 hc         1 GOZ       0.057200
     42 H14         18.7570   -13.1960    24.7510 ha         1 GOZ       0.116500
     43 H15         20.9490   -12.0690    24.6660 ha         1 GOZ       0.113500
     44 H16         23.0000   -13.3720    24.1710 ha         1 GOZ       0.113000
     45 H17         22.8350   -15.8150    23.7790 ha         1 GOZ       0.113500
     46 H18         20.6370   -16.9360    23.8660 ha         1 GOZ       0.116500
     47 H19         16.3840   -17.4750    23.2320 hn         1 GOZ       0.408000
     48 H20         15.5940   -16.0630    23.4420 hn         1 GOZ       0.408000
     49 H22         18.2090   -16.3170    22.1830 h1         1 GOZ       0.069700
     50 H23         16.3010   -10.5050    21.6910 hn         1 GOZ       0.311500
     51 H24         10.7530   -14.2090    22.8920 hn         1 GOZ       0.465250
     52 H25         11.7480   -14.6420    21.5900 hn         1 GOZ       0.465250
     53 H26         10.9680   -10.2570    24.9390 hn         1 GOZ       0.465250
     54 H27         11.9280    -8.9720    24.3950 hn         1 GOZ       0.465250
@<TRIPOS>BOND
     1     1    20 2   
     2     1    22 1   
     3     1    24 1   
     4     2     3 1   
     5     2    10 1   
     6     2    24 1   
     7     2    29 1   
     8     3    23 2   
     9     3    25 1   
    10     4     5 1   
    11     4    25 1   
    12     4    30 1   
    13     4    31 1   
    14     5     7 ar  
    15     5     8 ar  
    16     6     7 ar  
    17     6    27 ar  
    18     6    28 1   
    19     7    32 1   
    20     8     9 ar  
    21     8    33 1   
    22     9    26 1   
    23     9    27 ar  
    24    10    11 1   
    25    10    34 1   
    26    10    35 1   
    27    11    12 1   
    28    11    36 1   
    29    11    37 1   
    30    12    24 1   
    31    12    38 1   
    32    12    39 1   
    33    13    14 1   
    34    13    22 1   
    35    13    40 1   
    36    13    41 1   
    37    14    15 ar  
    38    14    19 ar  
    39    15    16 ar  
    40    15    42 1   
    41    16    17 ar  
    42    16    43 1   
    43    17    18 ar  
    44    17    44 1   
    45    18    19 ar  
    46    18    45 1   
    47    19    46 1   
    48    21    22 1   
    49    21    47 1   
    50    21    48 1   
    51    22    49 1   
    52    25    50 1   
    53    26    51 1   
    54    26    52 1   
    55    28    53 1   
    56    28    54 1   
@<TRIPOS>SUBSTRUCTURE
     1 GOZ         1 TEMP              0 ****  ****    0 ROOT
