@<TRIPOS>MOLECULE
GOZ
   54    56     1     0     0
SMALL
No Charge or Current Charge


@<TRIPOS>ATOM
      1 C1          17.4070   -14.7940    22.4590 c          1 GOZ       0.614100
      2 C2          17.6450   -12.5460    21.2780 c5         1 GOZ       0.032700
      3 C3          16.2490   -12.4910    20.5740 c          1 GOZ       0.603100
      4 C4          14.4090   -10.8140    20.2100 c3         1 GOZ       0.145300
      5 C5          13.3150   -10.9770    21.2560 ca         1 GOZ      -0.011300
      6 C8          11.9860   -10.1720    23.0950 ca         1 GOZ       0.623900
      7 C9          13.0030    -9.9500    22.1620 ca         1 GOZ      -0.254500
      8 C6          12.5730   -12.1650    21.3680 ca         1 GOZ      -0.254500
      9 C7          11.5900   -12.2450    22.3590 ca         1 GOZ       0.623900
     10 C10         18.7240   -12.0750    20.2550 c5         1 GOZ      -0.083400
     11 C11         20.0010   -12.7650    20.7880 c5         1 GOZ      -0.094400
     12 C12         19.4840   -14.1940    21.0800 c5         1 GOZ       0.109000
     13 C13         18.5900   -16.3240    24.1630 c3         1 GOZ      -0.068100
     14 C14         19.8110   -15.4260    24.3170 ca         1 GOZ      -0.082300
     15 C15         19.6630   -14.0850    24.7260 ca         1 GOZ      -0.106500
     16 C16         20.7860   -13.2470    24.8300 ca         1 GOZ      -0.112000
     17 C17         22.0650   -13.7440    24.5300 ca         1 GOZ      -0.112000
     18 C18         22.2200   -15.0820    24.1290 ca         1 GOZ      -0.112000
     19 C19         21.0970   -15.9200    24.0230 ca         1 GOZ      -0.106500
     20 O1          16.3400   -14.4300    22.9480 o          1 GOZ      -0.620100
     21 N           16.9670   -17.3610    22.5760 n8         1 GOZ      -0.983200
     22 C           17.9650   -16.2470    22.7460 c3         1 GOZ       0.096500
     23 O           15.6830   -13.3900    19.9630 o          1 GOZ      -0.595100
     24 N1          18.1390   -13.9110    21.6260 n          1 GOZ      -0.391800
     25 N2          15.7140   -11.2280    20.7260 ns         1 GOZ      -0.492900
     26 N3          10.8200   -13.3150    22.5490 nv         1 GOZ      -1.052400
     27 N4          11.2800   -11.2840    23.2130 nb         1 GOZ      -0.804000
     28 N5          11.6100    -9.2730    24.0030 nv         1 GOZ      -1.052400
     29 H1          17.6320   -11.9110    22.1740 h1         1 GOZ       0.059700
     30 H2          14.4700    -9.7610    19.9050 h1         1 GOZ       0.064700
     31 H3          14.1590   -11.4010    19.3160 h1         1 GOZ       0.064700
     32 H4          13.5330    -9.0030    22.1410 ha         1 GOZ       0.127500
     33 H5          12.7610   -13.0060    20.7080 ha         1 GOZ       0.127500
     34 H6          18.8180   -10.9840    20.2150 hc         1 GOZ       0.062700
     35 H7          18.4950   -12.4190    19.2390 hc         1 GOZ       0.062700
     36 H8          20.8250   -12.7570    20.0660 hc         1 GOZ       0.057200
     37 H9          20.3620   -12.2830    21.7050 hc         1 GOZ       0.057200
     38 H10         19.4120   -14.7940    20.1630 h1         1 GOZ       0.057700
     39 H11         20.1410   -14.7140    21.7860 h1         1 GOZ       0.057700
     40 H12         17.8310   -16.0580    24.9100 hc         1 GOZ       0.057200
     41 H13         18.8760   -17.3610    24.3790 hc         1 GOZ       0.057200
     42 H14         18.6760   -13.6890    24.9560 ha         1 GOZ       0.116500
     43 H15         20.6640   -12.2120    25.1410 ha         1 GOZ       0.113500
     44 H16         22.9340   -13.0950    24.6100 ha         1 GOZ       0.113000
     45 H17         23.2110   -15.4680    23.8970 ha         1 GOZ       0.113500
     46 H18         21.2260   -16.9520    23.7030 ha         1 GOZ       0.116500
     47 H19         17.3630   -18.2380    22.9360 hn         1 GOZ       0.408000
     48 H20         16.1640   -17.1840    23.1920 hn         1 GOZ       0.408000
     49 H22         18.7660   -16.4490    22.0230 h1         1 GOZ       0.069700
     50 H23         16.2600   -10.5540    21.2490 hn         1 GOZ       0.311500
     51 H24         10.0060   -13.1450    23.1250 hn         1 GOZ       0.465250
     52 H25         10.7020   -13.9510    21.7690 hn         1 GOZ       0.465250
     53 H26         11.0430    -9.6500    24.7520 hn         1 GOZ       0.465250
     54 H27         12.2800    -8.5560    24.2570 hn         1 GOZ       0.465250
@<TRIPOS>BOND
     1     1    20 2   
     2     1    22 1   
     3     1    24 1   
     4     2     3 1   
     5     2    10 1   
     6     2    24 1   
     7     2    29 1   
     8     3    23 2   
     9     3    25 1   
    10     4     5 1   
    11     4    25 1   
    12     4    30 1   
    13     4    31 1   
    14     5     7 ar  
    15     5     8 ar  
    16     6     7 ar  
    17     6    27 ar  
    18     6    28 1   
    19     7    32 1   
    20     8     9 ar  
    21     8    33 1   
    22     9    26 1   
    23     9    27 ar  
    24    10    11 1   
    25    10    34 1   
    26    10    35 1   
    27    11    12 1   
    28    11    36 1   
    29    11    37 1   
    30    12    24 1   
    31    12    38 1   
    32    12    39 1   
    33    13    14 1   
    34    13    22 1   
    35    13    40 1   
    36    13    41 1   
    37    14    15 ar  
    38    14    19 ar  
    39    15    16 ar  
    40    15    42 1   
    41    16    17 ar  
    42    16    43 1   
    43    17    18 ar  
    44    17    44 1   
    45    18    19 ar  
    46    18    45 1   
    47    19    46 1   
    48    21    22 1   
    49    21    47 1   
    50    21    48 1   
    51    22    49 1   
    52    25    50 1   
    53    26    51 1   
    54    26    52 1   
    55    28    53 1   
    56    28    54 1   
@<TRIPOS>SUBSTRUCTURE
     1 GOZ         1 TEMP              0 ****  ****    0 ROOT
