@<TRIPOS>MOLECULE
GP0
   37    38     1     0     0
SMALL
bcc


@<TRIPOS>ATOM
      1 C1           2.1760    -0.1920    -1.1280 cc         1 GP0       0.015600
      2 F1           4.2790    -0.4290    -2.0980 f          1 GP0      -0.138500
      3 N1           1.3670     0.0910    -0.0560 n          1 GP0      -0.356000
      4 C2           3.5070    -0.1520    -1.0440 cd         1 GP0      -0.034700
      5 C3           4.1760     0.1950     0.1890 c          1 GP0       0.721700
      6 O3           5.3760     0.2550     0.3480 o          1 GP0      -0.572500
      7 N4           3.2790     0.4630     1.2020 ns         1 GP0      -0.604500
      8 C5           1.9030     0.4320     1.1690 c          1 GP0       0.841500
      9 O5           1.2400     0.6900     2.1470 o          1 GP0      -0.612500
     10 C8          -0.0730     0.0140    -0.2390 c6         1 GP0       0.338500
     11 C9          -0.7440    -1.0300     0.6500 c6         1 GP0       0.103100
     12 O2          -0.0710    -2.2420     0.4530 oh         1 GP0      -0.593800
     13 C10         -2.2420    -1.0900     0.3010 c6         1 GP0       0.113800
     14 O1          -2.8200    -1.9550     1.2480 oh         1 GP0      -0.600800
     15 C4          -2.8040     0.3330     0.4670 c6         1 GP0       0.098100
     16 O4          -4.1520     0.3320     0.0710 oh         1 GP0      -0.573800
     17 C11         -1.9940     1.3610    -0.3420 c6         1 GP0       0.122100
     18 O8          -0.6140     1.2760    -0.0240 os         1 GP0      -0.386600
     19 C6          -2.4290     2.7770    -0.0330 c3         1 GP0       0.146400
     20 O6          -1.7080     3.6650    -0.8510 oh         1 GP0      -0.582800
     21 C7          -2.4810    -1.6710    -1.1110 c3         1 GP0       0.109400
     22 H1           1.6810    -0.4510    -2.0540 h4         1 GP0       0.171000
     23 HN4          3.6770     0.7180     2.0980 hn         1 GP0       0.346500
     24 H3          -0.2030    -0.2880    -1.2880 h2         1 GP0       0.049700
     25 H2          -0.6760    -0.7060     1.6950 h1         1 GP0       0.092700
     26 HO2         -0.4970    -2.9130     0.9990 ho         1 GP0       0.430000
     27 HO3         -3.6120    -2.3240     0.8320 ho         1 GP0       0.438000
     28 H4          -2.7080     0.5940     1.5320 h1         1 GP0       0.062700
     29 HO4         -4.6290     0.9930     0.5800 ho         1 GP0       0.409000
     30 H5          -2.1390     1.1720    -1.4170 h1         1 GP0       0.063700
     31 H6          -3.5080     2.8550    -0.2110 h1         1 GP0       0.030700
     32 H6'A        -2.2620     2.9730     1.0350 h1         1 GP0       0.030700
     33 HO6         -2.0040     4.5580    -0.6520 ho         1 GP0       0.409000
     34 H7          -1.7260    -2.4370    -1.3030 h1         1 GP0       0.045700
     35 O7          -3.7790    -2.2240    -1.1870 oh         1 GP0      -0.585800
     36 H14         -2.3540    -0.9020    -1.8800 h1         1 GP0       0.045700
     37 H15         -3.7080    -3.1120    -1.5440 ho         1 GP0       0.409000
@<TRIPOS>BOND
     1     1     3 1   
     2     1     4 2   
     3     1    22 1   
     4     2     4 1   
     5     3     8 1   
     6     3    10 1   
     7     4     5 1   
     8     5     6 2   
     9     5     7 1   
    10     7     8 1   
    11     7    23 1   
    12     8     9 2   
    13    10    11 1   
    14    10    18 1   
    15    10    24 1   
    16    11    12 1   
    17    11    13 1   
    18    11    25 1   
    19    12    26 1   
    20    13    14 1   
    21    13    15 1   
    22    13    21 1   
    23    14    27 1   
    24    15    16 1   
    25    15    17 1   
    26    15    28 1   
    27    16    29 1   
    28    17    18 1   
    29    17    19 1   
    30    17    30 1   
    31    19    20 1   
    32    19    31 1   
    33    19    32 1   
    34    20    33 1   
    35    21    34 1   
    36    21    35 1   
    37    21    36 1   
    38    35    37 1   
@<TRIPOS>SUBSTRUCTURE
     1 GP0         1 TEMP              0 ****  ****    0 ROOT
