@<TRIPOS>MOLECULE
GP0
   37    38     1     0     0
SMALL
No Charge or Current Charge


@<TRIPOS>ATOM
      1 C1           2.3110    -0.4650    -1.0870 cc         1 GP0      -0.034400
      2 F1           4.5030    -0.8340    -1.9110 f          1 GP0      -0.138500
      3 N1           1.4600     0.0540    -0.0990 n          1 GP0      -0.289000
      4 C2           3.6760    -0.3440    -0.9660 cd         1 GP0      -0.034700
      5 C3           4.2760     0.3310     0.2100 c          1 GP0       0.579200
      6 O3           5.4740     0.4850     0.3940 o          1 GP0      -0.497000
      7 N4           3.3540     0.7780     1.1080 ns         1 GP0      -0.470500
      8 C5           1.9950     0.6850     1.0510 c          1 GP0       0.632000
      9 O5           1.3230     1.1110     1.9750 o          1 GP0      -0.537000
     10 C8          -0.0120    -0.0320    -0.2840 c6         1 GP0       0.361700
     11 C9          -0.6830    -1.0880     0.6590 c6         1 GP0       0.126300
     12 O2          -0.1250    -2.4160     0.5030 oh         1 GP0      -0.716000
     13 C10         -2.2360    -1.1040     0.4420 c6         1 GP0       0.137000
     14 O1          -2.8260    -1.9600     1.4410 oh         1 GP0      -0.663000
     15 C4          -2.7810     0.3670     0.6100 c6         1 GP0       0.121300
     16 O4          -4.2030     0.4170     0.3700 oh         1 GP0      -0.696000
     17 C11         -2.0130     1.3540    -0.3340 c6         1 GP0       0.145300
     18 O8          -0.5880     1.2750    -0.0810 os         1 GP0      -0.433000
     19 C6          -2.4580     2.8400    -0.1320 c3         1 GP0       0.169600
     20 O6          -1.7260     3.7690    -0.9570 oh         1 GP0      -0.705000
     21 C7          -2.6400    -1.7140    -0.9570 c3         1 GP0       0.132600
     22 H1           1.7970    -0.9450    -1.9140 h4         1 GP0       0.221000
     23 HN4          3.7230     1.2320     1.9290 hn         1 GP0       0.346500
     24 H3          -0.1940    -0.3290    -1.3260 h2         1 GP0       0.049700
     25 H2          -0.5080    -0.7440     1.6890 h1         1 GP0       0.092700
     26 HO2         -0.6860    -3.0060     1.0630 ho         1 GP0       0.529000
     27 HO3         -3.7060    -2.2150     1.0780 ho         1 GP0       0.477000
     28 H4          -2.5780     0.6860     1.6450 h1         1 GP0       0.062700
     29 HO4         -4.3840    -0.3620    -0.2270 ho         1 GP0       0.508000
     30 H5          -2.2020     1.0900    -1.3840 h1         1 GP0       0.063700
     31 H6          -3.5310     2.9140    -0.3530 h1         1 GP0       0.030700
     32 H6'A        -2.3260     3.0950     0.9290 h1         1 GP0       0.030700
     33 HO6         -2.0260     4.6740    -0.7060 ho         1 GP0       0.508000
     34 H7          -2.1920    -2.7130    -1.0500 h1         1 GP0       0.045700
     35 O7          -4.0730    -1.8090    -1.0990 oh         1 GP0      -0.708000
     36 H14         -2.2200    -1.1010    -1.7650 h1         1 GP0       0.045700
     37 H15         -4.2530    -2.3480    -1.9090 ho         1 GP0       0.508000
@<TRIPOS>BOND
     1     1     3 1   
     2     1     4 2   
     3     1    22 1   
     4     2     4 1   
     5     3     8 1   
     6     3    10 1   
     7     4     5 1   
     8     5     6 2   
     9     5     7 1   
    10     7     8 1   
    11     7    23 1   
    12     8     9 2   
    13    10    11 1   
    14    10    18 1   
    15    10    24 1   
    16    11    12 1   
    17    11    13 1   
    18    11    25 1   
    19    12    26 1   
    20    13    14 1   
    21    13    15 1   
    22    13    21 1   
    23    14    27 1   
    24    15    16 1   
    25    15    17 1   
    26    15    28 1   
    27    16    29 1   
    28    17    18 1   
    29    17    19 1   
    30    17    30 1   
    31    19    20 1   
    32    19    31 1   
    33    19    32 1   
    34    20    33 1   
    35    21    34 1   
    36    21    35 1   
    37    21    36 1   
    38    35    37 1   
@<TRIPOS>SUBSTRUCTURE
     1 GP0         1 TEMP              0 ****  ****    0 ROOT
