@<TRIPOS>MOLECULE
GP2
   42    44     1     0     0
SMALL
No Charge or Current Charge


@<TRIPOS>ATOM
      1 O6          -3.5630     0.7250    -5.0550 o          1 GP2      -0.554000
      2 C6          -2.3760     0.5000    -4.8570 c          1 GP2       0.516500
      3 C5          -1.7760    -0.0230    -3.6040 cc         1 GP2       0.113500
      4 N7          -2.3990    -0.3620    -2.4250 nc         1 GP2      -0.605000
      5 C4          -0.4260    -0.2350    -3.5150 cd         1 GP2       0.080400
      6 N3           0.4770     0.0130    -4.5540 nd         1 GP2      -0.663100
      7 C2          -0.1130     0.4740    -5.6370 cc         1 GP2       0.669800
      8 N1          -1.4320     0.7150    -5.8150 ns         1 GP2      -0.459400
      9 N2           0.6610     0.7430    -6.6760 nv         1 GP2      -1.060200
     10 N9          -0.1820    -0.7200    -2.2500 na         1 GP2      -0.180500
     11 C8          -1.4210    -0.7830    -1.6120 cd         1 GP2       0.481400
     12 C1           1.1100    -1.1190    -1.7060 c5         1 GP2       0.324300
     13 C10          2.2430    -0.0450    -1.8260 c5         1 GP2       0.064300
     14 O2           2.9240    -0.0660    -3.0950 oh         1 GP2      -0.719000
     15 C3           3.1540    -0.4600    -0.6400 c5         1 GP2       0.094300
     16 O3           3.9330    -1.6170    -0.9760 oh         1 GP2      -0.721000
     17 O4           1.0080    -1.4360    -0.2970 os         1 GP2      -0.404000
     18 C9           2.0520    -0.7360     0.4400 c5         1 GP2       0.150300
     19 C7           1.4720     0.5730     1.0720 c3         1 GP2       0.224600
     20 O5           1.0050     0.3690     2.4160 os         1 GP2      -0.564400
     21 PA          -0.1590    -0.6930     2.7780 p5         1 GP2       1.407400
     22 O1A         -1.3580    -0.5890     1.8950 o          1 GP2      -0.854500
     23 O2A          0.3970    -2.0790     2.8210 o          1 GP2      -0.854500
     24 C3A         -0.4520    -0.2390     4.4800 c3         1 GP2      -0.726400
     25 PB          -1.5050     1.1890     4.4590 p5         1 GP2       1.343500
     26 O1B         -2.9140     0.7480     4.2640 o          1 GP2      -0.952833
     27 O3B         -1.3900     1.7560     5.8320 o          1 GP2      -0.952833
     28 O2B         -1.0970     2.2130     3.4610 o          1 GP2      -0.952833
     29 HN1         -1.7570     1.0530    -6.7070 hn         1 GP2       0.293500
     30 HN21         1.6530     0.7530    -6.4730 hn         1 GP2       0.474500
     31 HN22         0.3370     1.4420    -7.3330 hn         1 GP2       0.474500
     32 H8          -1.5310    -1.1440    -0.5950 h5         1 GP2       0.177100
     33 H1           1.3990    -2.0270    -2.2490 h2         1 GP2       0.077700
     34 H6           1.8220     0.9550    -1.6480 h1         1 GP2       0.086700
     35 H2           2.1990    -0.0060    -3.7780 ho         1 GP2       0.493000
     36 H3           3.8150     0.3650    -0.3380 h1         1 GP2       0.049700
     37 H7           4.1240    -1.5060    -1.9390 ho         1 GP2       0.490000
     38 H4           2.4420    -1.3790     1.2390 h1         1 GP2       0.084700
     39 H5'1         2.2660     1.3310     1.0880 h1         1 GP2       0.001700
     40 H5'2         0.6640     0.9640     0.4400 h1         1 GP2       0.001700
     41 H3A1         0.4980    -0.0130     4.9690 hc         1 GP2       0.025200
     42 H3A2        -0.9410    -1.0630     5.0070 hc         1 GP2       0.025200
@<TRIPOS>BOND
     1     1     2 2   
     2     2     3 1   
     3     2     8 1   
     4     3     4 1   
     5     3     5 2   
     6     4    11 2   
     7     5     6 1   
     8     5    10 1   
     9     6     7 2   
    10     7     8 1   
    11     7     9 1   
    12     8    29 1   
    13     9    30 1   
    14     9    31 1   
    15    10    11 1   
    16    10    12 1   
    17    11    32 1   
    18    12    13 1   
    19    12    17 1   
    20    12    33 1   
    21    13    14 1   
    22    13    15 1   
    23    13    34 1   
    24    14    35 1   
    25    15    16 1   
    26    15    18 1   
    27    15    36 1   
    28    16    37 1   
    29    17    18 1   
    30    18    19 1   
    31    18    38 1   
    32    19    20 1   
    33    19    39 1   
    34    19    40 1   
    35    20    21 1   
    36    21    22 1   
    37    21    23 1   
    38    21    24 1   
    39    24    25 1   
    40    24    41 1   
    41    24    42 1   
    42    25    26 1   
    43    25    27 1   
    44    25    28 1   
@<TRIPOS>SUBSTRUCTURE
     1 GP2         1 TEMP              0 ****  ****    0 ROOT
