@<TRIPOS>MOLECULE
GP2
   42    44     1     0     0
SMALL
abcg2


@<TRIPOS>ATOM
      1 O6          -3.7940     0.1640    -4.5270 o          1 GP2      -0.554000
      2 C6          -2.6110    -0.1200    -4.4250 c          1 GP2       0.516500
      3 C5          -1.7460     0.0400    -3.3060 cc         1 GP2       0.113500
      4 N7          -1.9900     0.5330    -2.0500 nc         1 GP2      -0.605000
      5 C4          -0.4260    -0.3570    -3.4250 cd         1 GP2       0.080400
      6 N3           0.1870    -0.8960    -4.4890 nd         1 GP2      -0.663100
      7 C2          -0.6070    -1.0530    -5.5170 cc         1 GP2       0.669800
      8 N1          -1.9230    -0.6900    -5.5040 ns         1 GP2      -0.459400
      9 N2          -0.1460    -1.6290    -6.6410 nv         1 GP2      -1.060200
     10 N9           0.1370    -0.0900    -2.2170 na         1 GP2      -0.180500
     11 C8          -0.8540     0.4460    -1.4260 cd         1 GP2       0.481400
     12 C1           1.5190    -0.3040    -1.8630 c5         1 GP2       0.324300
     13 C10          2.3510     0.9780    -1.8040 c5         1 GP2       0.064300
     14 O2           2.8150     1.3050    -3.0810 oh         1 GP2      -0.719000
     15 C3           3.4380     0.5720    -0.8050 c5         1 GP2       0.094300
     16 O3           4.3960    -0.2550    -1.4160 oh         1 GP2      -0.721000
     17 O4           1.5900    -0.8680    -0.5890 os         1 GP2      -0.404000
     18 C9           2.6250    -0.2490     0.1840 c5         1 GP2       0.150300
     19 C7           2.0380     0.6130     1.2890 c3         1 GP2       0.224600
     20 O5           1.1770    -0.1600     2.0770 os         1 GP2      -0.564400
     21 PA          -0.1420     0.6220     2.7750 p5         1 GP2       1.407400
     22 O1A          0.4030     1.5230     3.8540 o          1 GP2      -0.854500
     23 O2A         -0.9180     1.2680     1.6460 o          1 GP2      -0.854500
     24 C3A         -0.9740    -0.8410     3.4300 c3         1 GP2      -0.726400
     25 PB          -2.2870    -0.4980     4.7260 p5         1 GP2       1.343500
     26 O1B         -3.0650     0.7120     4.1980 o          1 GP2      -0.952833
     27 O3B         -3.1170    -1.7900     4.7620 o          1 GP2      -0.952833
     28 O2B         -1.5250    -0.2350     6.0280 o          1 GP2      -0.952833
     29 HN1         -2.4740    -0.8550    -6.3360 hn         1 GP2       0.293500
     30 HN21         0.8510    -1.7380    -6.7210 hn         1 GP2       0.474500
     31 HN22        -0.6470    -1.5260    -7.5080 hn         1 GP2       0.474500
     32 H8          -0.6900     0.7230    -0.3870 h5         1 GP2       0.177100
     33 H1           1.9310    -0.9740    -2.6270 h2         1 GP2       0.077700
     34 H6           1.7520     1.7890    -1.3730 h1         1 GP2       0.086700
     35 H2           3.0730     2.2320    -3.0880 ho         1 GP2       0.493000
     36 H3           3.9040     1.4450    -0.3280 h1         1 GP2       0.049700
     37 H7           4.6390     0.1470    -2.2580 ho         1 GP2       0.490000
     38 H4           3.2330    -1.0430     0.6300 h1         1 GP2       0.084700
     39 H5'1         2.8760     1.0120     1.8780 h1         1 GP2       0.001700
     40 H5'2         1.5200     1.4770     0.8540 h1         1 GP2       0.001700
     41 H3A1        -0.2290    -1.5200     3.8570 hc         1 GP2       0.025200
     42 H3A2        -1.4240    -1.3690     2.5850 hc         1 GP2       0.025200
@<TRIPOS>BOND
     1     1     2 2   
     2     2     3 1   
     3     2     8 1   
     4     3     4 1   
     5     3     5 2   
     6     4    11 2   
     7     5     6 1   
     8     5    10 1   
     9     6     7 2   
    10     7     8 1   
    11     7     9 1   
    12     8    29 1   
    13     9    30 1   
    14     9    31 1   
    15    10    11 1   
    16    10    12 1   
    17    11    32 1   
    18    12    13 1   
    19    12    17 1   
    20    12    33 1   
    21    13    14 1   
    22    13    15 1   
    23    13    34 1   
    24    14    35 1   
    25    15    16 1   
    26    15    18 1   
    27    15    36 1   
    28    16    37 1   
    29    17    18 1   
    30    18    19 1   
    31    18    38 1   
    32    19    20 1   
    33    19    39 1   
    34    19    40 1   
    35    20    21 1   
    36    21    22 1   
    37    21    23 1   
    38    21    24 1   
    39    24    25 1   
    40    24    41 1   
    41    24    42 1   
    42    25    26 1   
    43    25    27 1   
    44    25    28 1   
@<TRIPOS>SUBSTRUCTURE
     1 GP2         1 TEMP              0 ****  ****    0 ROOT
