@<TRIPOS>MOLECULE
GP3
   75    80     1     0     0
SMALL
No Charge or Current Charge


@<TRIPOS>ATOM
      1 N9A         -1.0980    -0.3140    -4.9140 na         1 GP3      -0.194000
      2 C8A         -2.0470     0.6920    -4.8970 cc         1 GP3       0.480400
      3 N7A         -1.9350     1.4910    -5.9580 nd         1 GP3      -0.604500
      4 C5A         -0.8500     1.0020    -6.6720 cd         1 GP3       0.112000
      5 C6A         -0.2270     1.4840    -7.9430 c          1 GP3       0.518000
      6 O6A         -0.5950     2.4490    -8.6010 o          1 GP3      -0.548000
      7 N1A          0.8350     0.7150    -8.3210 ns         1 GP3      -0.460400
      8 C2A          1.2580    -0.3570    -7.6210 cd         1 GP3       0.683800
      9 N2A          2.3020    -1.0100    -8.1010 nv         1 GP3      -1.068700
     10 N3A          0.7530    -0.8270    -6.5060 nc         1 GP3      -0.674100
     11 C4A         -0.3300    -0.1060    -6.0420 cc         1 GP3       0.081400
     12 O5D          1.6450     1.1940    -1.9400 os         1 GP3      -0.550400
     13 C5D          1.5640     0.2710    -3.0400 c3         1 GP3       0.224600
     14 C4D          0.8520    -1.0570    -2.6240 c5         1 GP3       0.153800
     15 O4D         -0.5890    -0.9420    -2.6700 os         1 GP3      -0.386000
     16 C3D          1.1970    -2.2720    -3.5670 c5         1 GP3       0.086300
     17 O3D          1.7790    -3.3930    -2.8620 oh         1 GP3      -0.712000
     18 C2D         -0.1860    -2.6880    -4.1880 c5         1 GP3       0.075300
     19 O2D         -0.6550    -3.8390    -3.4740 oh         1 GP3      -0.712000
     20 C1D         -1.0680    -1.4170    -3.9390 c5         1 GP3       0.321800
     21 PA           0.4050     2.1340    -1.4970 p5         1 GP3       1.453800
     22 O1A          0.9510     3.2640    -0.6860 o          1 GP3      -0.860000
     23 O2A         -0.3220     2.6170    -2.7080 o          1 GP3      -0.860000
     24 O3A         -0.3550     1.0840    -0.6040 os         1 GP3      -0.686800
     25 PB          -1.8640     1.4660    -0.3470 p5         1 GP3       1.523800
     26 O1B         -2.7220     1.1800    -1.5370 o          1 GP3      -0.867000
     27 O2B         -2.0190     2.8540     0.1850 o          1 GP3      -0.867000
     28 O3B         -2.0700     0.3600     0.7580 os         1 GP3      -0.686800
     29 PG          -3.3140     0.6040     1.6910 p5         1 GP3       1.453800
     30 O1G         -4.5630     0.9920     0.9680 o          1 GP3      -0.860000
     31 O2G         -3.0410     1.4970     2.8560 o          1 GP3      -0.860000
     32 O5E         -3.4870    -0.9220     2.1950 os         1 GP3      -0.550400
     33 C5E         -2.7340    -1.4710     3.2890 c3         1 GP3       0.224600
     34 C4E         -1.2140    -1.6250     2.9480 c5         1 GP3       0.153800
     35 O4E         -0.4800    -0.4260     3.3250 os         1 GP3      -0.386000
     36 C3E         -0.5240    -2.7640     3.7730 c5         1 GP3       0.086300
     37 O3E          0.7350    -3.1810     3.2250 oh         1 GP3      -0.712000
     38 C2E         -0.3220    -2.0220     5.1250 c5         1 GP3       0.075300
     39 O2E          0.6170    -2.7100     5.9770 oh         1 GP3      -0.712000
     40 C1E          0.1850    -0.6360     4.5940 c5         1 GP3       0.321800
     41 N9B          0.0000     0.5360     5.4510 na         1 GP3      -0.194000
     42 C8B         -1.1450     0.8780     6.1480 cc         1 GP3       0.480400
     43 N7B         -0.9530     1.9690     6.8910 nd         1 GP3      -0.604500
     44 C5B          0.3660     2.3420     6.6630 cd         1 GP3       0.112000
     45 C6B          1.1730     3.4760     7.2090 c          1 GP3       0.518000
     46 O6B          0.7770     4.3230     7.9980 o          1 GP3      -0.548000
     47 N1B          2.4520     3.4760     6.7270 ns         1 GP3      -0.460400
     48 C2B          2.9210     2.5500     5.8650 cd         1 GP3       0.683800
     49 N2B          4.1800     2.6730     5.4800 nv         1 GP3      -1.068700
     50 N3B          2.2650     1.5350     5.3540 nc         1 GP3      -0.674100
     51 C4B          0.9540     1.4640     5.7840 cc         1 GP3       0.081400
     52 H8A         -2.7890     0.7720    -4.1080 h5         1 GP3       0.163100
     53 H1A          1.2960     0.9710    -9.1790 hn         1 GP3       0.295000
     54 H21A         2.7040    -1.6760    -7.4530 hn         1 GP3       0.481750
     55 H22A         2.9620    -0.4900    -8.6650 hn         1 GP3       0.481750
     56 H51A         2.5840     0.0220    -3.3590 h1         1 GP3       0.007950
     57 H52A         1.0680     0.7290    -3.9010 h1         1 GP3       0.007950
     58 H4D          1.1430    -1.2780    -1.5880 h1         1 GP3       0.089200
     59 H3D          1.8780    -1.9470    -4.3660 h1         1 GP3       0.052700
     60 HO3A         2.7340    -3.1900    -2.7160 ho         1 GP3       0.490000
     61 H2D         -0.1030    -2.9220    -5.2580 h1         1 GP3       0.066200
     62 HO2A         0.1660    -4.0810    -2.9640 ho         1 GP3       0.500000
     63 H1D         -2.1160    -1.7240    -3.8410 h2         1 GP3       0.094200
     64 H51B        -2.8560    -0.8580     4.1910 h1         1 GP3       0.007950
     65 H52B        -3.1370    -2.4640     3.5230 h1         1 GP3       0.007950
     66 H4E         -1.1090    -1.8030     1.8700 h1         1 GP3       0.089200
     67 H3E         -1.1890    -3.6330     3.8900 h1         1 GP3       0.052700
     68 HO3B         1.3070    -3.3460     4.0130 ho         1 GP3       0.490000
     69 H2E         -1.2840    -1.9050     5.6450 h1         1 GP3       0.066200
     70 HO2B         0.1140    -3.3790     6.5020 ho         1 GP3       0.500000
     71 H1E          1.2640    -0.7050     4.4090 h2         1 GP3       0.094200
     72 H8B         -2.0660     0.3100     6.0720 h5         1 GP3       0.163100
     73 H1B          3.0610     4.2040     7.0650 hn         1 GP3       0.295000
     74 H21B         4.4270     2.0920     4.6880 hn         1 GP3       0.481750
     75 H22B         4.5820     3.6030     5.4840 hn         1 GP3       0.481750
@<TRIPOS>BOND
     1     1     2 1   
     2     1    11 1   
     3     1    20 1   
     4     2     3 2   
     5     2    52 1   
     6     3     4 1   
     7     4     5 1   
     8     4    11 2   
     9     5     6 2   
    10     5     7 1   
    11     7     8 1   
    12     7    53 1   
    13     8     9 1   
    14     8    10 2   
    15     9    54 1   
    16     9    55 1   
    17    10    11 1   
    18    12    13 1   
    19    12    21 1   
    20    13    14 1   
    21    13    56 1   
    22    13    57 1   
    23    14    15 1   
    24    14    16 1   
    25    14    58 1   
    26    15    20 1   
    27    16    17 1   
    28    16    18 1   
    29    16    59 1   
    30    17    60 1   
    31    18    19 1   
    32    18    20 1   
    33    18    61 1   
    34    19    62 1   
    35    20    63 1   
    36    21    22 1   
    37    21    23 1   
    38    21    24 1   
    39    24    25 1   
    40    25    26 1   
    41    25    27 1   
    42    25    28 1   
    43    28    29 1   
    44    29    30 1   
    45    29    31 1   
    46    29    32 1   
    47    32    33 1   
    48    33    34 1   
    49    33    64 1   
    50    33    65 1   
    51    34    35 1   
    52    34    36 1   
    53    34    66 1   
    54    35    40 1   
    55    36    37 1   
    56    36    38 1   
    57    36    67 1   
    58    37    68 1   
    59    38    39 1   
    60    38    40 1   
    61    38    69 1   
    62    39    70 1   
    63    40    41 1   
    64    40    71 1   
    65    41    42 1   
    66    41    51 1   
    67    42    43 2   
    68    42    72 1   
    69    43    44 1   
    70    44    45 1   
    71    44    51 2   
    72    45    46 2   
    73    45    47 1   
    74    47    48 1   
    75    47    73 1   
    76    48    49 1   
    77    48    50 2   
    78    49    74 1   
    79    49    75 1   
    80    50    51 1   
@<TRIPOS>SUBSTRUCTURE
     1 GP3         1 TEMP              0 ****  ****    0 ROOT
