@<TRIPOS>MOLECULE
GP3
   75    80     1     0     0
SMALL
abcg2


@<TRIPOS>ATOM
      1 N9A         -0.0830    -0.3120    -6.6290 na         1 GP3      -0.194000
      2 C8A         -0.7510     0.7210    -6.0120 cc         1 GP3       0.480400
      3 N7A         -1.3790     1.4830    -6.8570 nd         1 GP3      -0.604500
      4 C5A         -1.1330     0.9280    -8.0840 cd         1 GP3       0.112000
      5 C6A         -1.5640     1.3210    -9.3830 c          1 GP3       0.518000
      6 O6A         -2.2550     2.2730    -9.7060 o          1 GP3      -0.548000
      7 N1A         -1.0810     0.4320   -10.3530 ns         1 GP3      -0.460400
      8 C2A         -0.3130    -0.6720   -10.1210 cd         1 GP3       0.683800
      9 N2A         -0.0020    -1.4310   -11.1840 nv         1 GP3      -1.068700
     10 N3A          0.0880    -1.0250    -8.9260 nc         1 GP3      -0.674100
     11 C4A         -0.3400    -0.1980    -7.9590 cc         1 GP3       0.081400
     12 O5D          1.0020     0.2910    -2.2300 os         1 GP3      -0.550400
     13 C5D          1.7920     0.5670    -3.3640 c3         1 GP3       0.224600
     14 C4D          1.9600    -0.6860    -4.1920 c5         1 GP3       0.153800
     15 O4D          0.6950    -1.1930    -4.6200 os         1 GP3      -0.386000
     16 C3D          2.7530    -0.4260    -5.4730 c5         1 GP3       0.086300
     17 O3D          4.1200    -0.6380    -5.2490 oh         1 GP3      -0.712000
     18 C2D          2.1250    -1.4190    -6.4550 c5         1 GP3       0.075300
     19 O2D          2.6090    -2.7170    -6.2400 oh         1 GP3      -0.712000
     20 C1D          0.6690    -1.3970    -5.9950 c5         1 GP3       0.321800
     21 PA          -0.0660     1.4560    -1.7660 p5         1 GP3       1.453800
     22 O1A          0.6950     2.6390    -1.2520 o          1 GP3      -0.860000
     23 O2A         -1.1090     1.6430    -2.8270 o          1 GP3      -0.860000
     24 O3A         -0.6550     0.6250    -0.4910 os         1 GP3      -0.686800
     25 PB          -2.2450     0.2590    -0.2430 p5         1 GP3       1.523800
     26 O1B         -2.6490    -0.8690    -1.1330 o          1 GP3      -0.867000
     27 O2B         -3.0470     1.5160    -0.1490 o          1 GP3      -0.867000
     28 O3B         -1.9690    -0.3330     1.2740 os         1 GP3      -0.686800
     29 PG          -3.0810    -0.2830     2.4720 p5         1 GP3       1.453800
     30 O1G         -4.4210    -0.7190     1.9710 o          1 GP3      -0.860000
     31 O2G         -2.9530     0.9850     3.2640 o          1 GP3      -0.860000
     32 O5E         -2.3760    -1.5130     3.3130 os         1 GP3      -0.550400
     33 C5E         -2.7710    -1.7200     4.6470 c3         1 GP3       0.224600
     34 C4E         -1.6090    -2.3240     5.4140 c5         1 GP3       0.153800
     35 O4E         -0.4510    -1.4870     5.3260 os         1 GP3      -0.386000
     36 C3E         -1.9100    -2.4530     6.8990 c5         1 GP3       0.086300
     37 O3E         -1.1260    -3.4870     7.4360 oh         1 GP3      -0.712000
     38 C2E         -1.4380    -1.0890     7.4110 c5         1 GP3       0.075300
     39 O2E         -1.0920    -1.0570     8.7630 oh         1 GP3      -0.712000
     40 C1E         -0.1950    -0.8620     6.5490 c5         1 GP3       0.321800
     41 N9B          0.1080     0.5310     6.3190 na         1 GP3      -0.194000
     42 C8B         -0.5420     1.3960     5.4690 cc         1 GP3       0.480400
     43 N7B         -0.0500     2.5970     5.5110 nd         1 GP3      -0.604500
     44 C5B          0.9670     2.5310     6.4290 cd         1 GP3       0.112000
     45 C6B          1.8680     3.5340     6.8870 c          1 GP3       0.518000
     46 O6B          1.9360     4.7090     6.5660 o          1 GP3      -0.548000
     47 N1B          2.7560     3.0030     7.8310 ns         1 GP3      -0.460400
     48 C2B          2.7850     1.7110     8.2720 cd         1 GP3       0.683800
     49 N2B          3.6940     1.4100     9.2110 nv         1 GP3      -1.068700
     50 N3B          1.9560     0.7920     7.8450 nc         1 GP3      -0.674100
     51 C4B          1.0800     1.2510     6.9400 cc         1 GP3       0.081400
     52 H8A         -0.7580     0.8510    -4.9380 h5         1 GP3       0.163100
     53 H1A         -1.3470     0.6410   -11.3070 hn         1 GP3       0.295000
     54 H21A         0.6850    -2.1540   -11.0520 hn         1 GP3       0.481750
     55 H22A        -0.1010    -1.0760   -12.1200 hn         1 GP3       0.481750
     56 H51A         2.7900     0.9110    -3.0670 h1         1 GP3       0.007950
     57 H52A         1.3570     1.3550    -3.9890 h1         1 GP3       0.007950
     58 H4D          2.4580    -1.4590    -3.5950 h1         1 GP3       0.089200
     59 H3D          2.5630     0.5940    -5.8290 h1         1 GP3       0.052700
     60 HO3A         4.6180    -0.2150    -5.9550 ho         1 GP3       0.490000
     61 H2D          2.2430    -1.1090    -7.4990 h1         1 GP3       0.066200
     62 HO2A         3.5530    -2.6500    -6.0510 ho         1 GP3       0.500000
     63 H1D          0.1580    -2.3360    -6.2250 h2         1 GP3       0.094200
     64 H51B        -3.0870    -0.7820     5.1210 h1         1 GP3       0.007950
     65 H52B        -3.6180    -2.4130     4.7040 h1         1 GP3       0.007950
     66 H4E         -1.3560    -3.2960     4.9790 h1         1 GP3       0.089200
     67 H3E         -2.9800    -2.6150     7.0890 h1         1 GP3       0.052700
     68 HO3B        -1.0390    -3.3300     8.3830 ho         1 GP3       0.490000
     69 H2E         -2.1960    -0.3310     7.1730 h1         1 GP3       0.066200
     70 HO2B        -1.8870    -0.9010     9.2830 ho         1 GP3       0.500000
     71 H1E          0.6840    -1.2900     7.0430 h2         1 GP3       0.094200
     72 H8B         -1.3540     1.0810     4.8260 h5         1 GP3       0.163100
     73 H1B          3.4290     3.6550     8.2130 hn         1 GP3       0.295000
     74 H21B         3.8210     0.4400     9.4470 hn         1 GP3       0.481750
     75 H22B         4.4610     2.0280     9.4110 hn         1 GP3       0.481750
@<TRIPOS>BOND
     1     1     2 1   
     2     1    11 1   
     3     1    20 1   
     4     2     3 2   
     5     2    52 1   
     6     3     4 1   
     7     4     5 1   
     8     4    11 2   
     9     5     6 2   
    10     5     7 1   
    11     7     8 1   
    12     7    53 1   
    13     8     9 1   
    14     8    10 2   
    15     9    54 1   
    16     9    55 1   
    17    10    11 1   
    18    12    13 1   
    19    12    21 1   
    20    13    14 1   
    21    13    56 1   
    22    13    57 1   
    23    14    15 1   
    24    14    16 1   
    25    14    58 1   
    26    15    20 1   
    27    16    17 1   
    28    16    18 1   
    29    16    59 1   
    30    17    60 1   
    31    18    19 1   
    32    18    20 1   
    33    18    61 1   
    34    19    62 1   
    35    20    63 1   
    36    21    22 1   
    37    21    23 1   
    38    21    24 1   
    39    24    25 1   
    40    25    26 1   
    41    25    27 1   
    42    25    28 1   
    43    28    29 1   
    44    29    30 1   
    45    29    31 1   
    46    29    32 1   
    47    32    33 1   
    48    33    34 1   
    49    33    64 1   
    50    33    65 1   
    51    34    35 1   
    52    34    36 1   
    53    34    66 1   
    54    35    40 1   
    55    36    37 1   
    56    36    38 1   
    57    36    67 1   
    58    37    68 1   
    59    38    39 1   
    60    38    40 1   
    61    38    69 1   
    62    39    70 1   
    63    40    41 1   
    64    40    71 1   
    65    41    42 1   
    66    41    51 1   
    67    42    43 2   
    68    42    72 1   
    69    43    44 1   
    70    44    45 1   
    71    44    51 2   
    72    45    46 2   
    73    45    47 1   
    74    47    48 1   
    75    47    73 1   
    76    48    49 1   
    77    48    50 2   
    78    49    74 1   
    79    49    75 1   
    80    50    51 1   
@<TRIPOS>SUBSTRUCTURE
     1 GP3         1 TEMP              0 ****  ****    0 ROOT
