@<TRIPOS>MOLECULE
GP4
   28    28     1     0     0
SMALL
No Charge or Current Charge


@<TRIPOS>ATOM
      1 C1          54.4920    71.5480    54.9000 c6         1 GP4       0.393300
      2 C2          54.6130    72.5050    53.6480 c6         1 GP4       0.133500
      3 C3          54.0870    71.7870    52.3550 c6         1 GP4       0.186300
      4 C4          54.8020    70.3960    52.1830 c6         1 GP4       0.192300
      5 C5          54.6570    69.5530    53.4880 c6         1 GP4       0.157300
      6 C6          55.4410    68.1990    53.4000 c3         1 GP4       0.155600
      7 N2          53.9800    73.8590    53.8190 n8         1 GP4      -0.981200
      8 O3          54.2240    72.6590    51.2010 oh         1 GP4      -0.811000
      9 O4          54.3090    69.6520    51.0410 os         1 GP4      -0.595400
     10 O6          55.3610    67.4040    54.6050 oh         1 GP4      -0.743000
     11 O5          55.1530    70.2980    54.6400 os         1 GP4      -0.511000
     12 O7A         54.2840    68.9940    48.6120 o          1 GP4      -0.888500
     13 P4A         55.0140    69.8220    49.6080 p5         1 GP4       1.288900
     14 O8A         54.9350    71.2560    49.2300 o          1 GP4      -0.888500
     15 O9A         56.4300    69.3810    49.6970 o          1 GP4      -0.888500
     16 O1          53.1440    71.2450    55.2540 oh         1 GP4      -0.652000
     17 H1          54.9830    72.0280    55.7600 h2         1 GP4       0.007700
     18 H2          55.6840    72.7000    53.4890 h1         1 GP4       0.022700
     19 H3          53.0170    71.5760    52.5070 h1         1 GP4       0.032700
     20 H4          55.8750    70.5880    52.0370 h1         1 GP4       0.037700
     21 H5          53.5950    69.3130    53.6400 h1         1 GP4       0.053700
     22 H61         55.0430    67.6280    52.5500 h1         1 GP4       0.048700
     23 H62         56.4900    68.4310    53.1680 h1         1 GP4       0.048700
     24 HN2         53.8310    74.2200    52.8690 hn         1 GP4       0.377000
     25 HN22        54.6750    74.4990    54.2180 hn         1 GP4       0.377000
     26 HO3         54.4900    72.0630    50.4150 ho         1 GP4       0.556000
     27 HO6         55.9360    66.6160    54.4670 ho         1 GP4       0.471000
     28 HO1         53.2230    70.5710    55.9590 ho         1 GP4       0.417000
@<TRIPOS>BOND
     1     1     2 1   
     2     1    11 1   
     3     1    16 1   
     4     1    17 1   
     5     2     3 1   
     6     2     7 1   
     7     2    18 1   
     8     3     4 1   
     9     3     8 1   
    10     3    19 1   
    11     4     5 1   
    12     4     9 1   
    13     4    20 1   
    14     5     6 1   
    15     5    11 1   
    16     5    21 1   
    17     6    10 1   
    18     6    22 1   
    19     6    23 1   
    20     7    24 1   
    21     7    25 1   
    22     8    26 1   
    23     9    13 1   
    24    10    27 1   
    25    12    13 1   
    26    13    14 1   
    27    13    15 1   
    28    16    28 1   
@<TRIPOS>SUBSTRUCTURE
     1 GP4         1 TEMP              0 ****  ****    0 ROOT
