@<TRIPOS>MOLECULE
GP4
   28    28     1     0     0
SMALL
abcg2


@<TRIPOS>ATOM
      1 C1          54.4530    71.5090    54.8110 c6         1 GP4       0.393300
      2 C2          54.6710    72.4240    53.6120 c6         1 GP4       0.133500
      3 C3          54.2270    71.7510    52.3150 c6         1 GP4       0.186300
      4 C4          54.9010    70.3760    52.1810 c6         1 GP4       0.192300
      5 C5          54.7270    69.5620    53.4680 c6         1 GP4       0.157300
      6 C6          55.5620    68.2980    53.4400 c3         1 GP4       0.155600
      7 N2          53.9810    73.6900    53.7910 n8         1 GP4      -0.981200
      8 O3          54.5430    72.6200    51.2660 oh         1 GP4      -0.811000
      9 O4          54.3430    69.6160    51.1420 os         1 GP4      -0.595400
     10 O6          55.2690    67.5200    54.5790 oh         1 GP4      -0.743000
     11 O5          55.1280    70.2980    54.6130 os         1 GP4      -0.511000
     12 O7A         54.1110    68.7060    48.8220 o          1 GP4      -0.888500
     13 P4A         54.8620    69.8140    49.5290 p5         1 GP4       1.288900
     14 O8A         54.3600    71.2360    49.1680 o          1 GP4      -0.888500
     15 O9A         56.3760    69.6980    49.5650 o          1 GP4      -0.888500
     16 O1          53.0890    71.3310    55.0300 oh         1 GP4      -0.652000
     17 H1          54.9320    71.9470    55.6970 h2         1 GP4       0.007700
     18 H2          55.7650    72.5500    53.5450 h1         1 GP4       0.022700
     19 H3          53.1390    71.5710    52.3730 h1         1 GP4       0.032700
     20 H4          55.9790    70.5420    52.0190 h1         1 GP4       0.037700
     21 H5          53.6680    69.2780    53.5500 h1         1 GP4       0.053700
     22 H61         55.3340    67.7590    52.5150 h1         1 GP4       0.048700
     23 H62         56.6260    68.5750    53.4010 h1         1 GP4       0.048700
     24 HN2         54.1740    74.2740    52.9880 hn         1 GP4       0.377000
     25 HN22        54.3740    74.1800    54.5860 hn         1 GP4       0.377000
     26 HO3         54.4460    72.1170    50.3850 ho         1 GP4       0.556000
     27 HO6         55.7560    66.6950    54.5080 ho         1 GP4       0.471000
     28 HO1         52.9710    70.8550    55.8590 ho         1 GP4       0.417000
@<TRIPOS>BOND
     1     1     2 1   
     2     1    11 1   
     3     1    16 1   
     4     1    17 1   
     5     2     3 1   
     6     2     7 1   
     7     2    18 1   
     8     3     4 1   
     9     3     8 1   
    10     3    19 1   
    11     4     5 1   
    12     4     9 1   
    13     4    20 1   
    14     5     6 1   
    15     5    11 1   
    16     5    21 1   
    17     6    10 1   
    18     6    22 1   
    19     6    23 1   
    20     7    24 1   
    21     7    25 1   
    22     8    26 1   
    23     9    13 1   
    24    10    27 1   
    25    12    13 1   
    26    13    14 1   
    27    13    15 1   
    28    16    28 1   
@<TRIPOS>SUBSTRUCTURE
     1 GP4         1 TEMP              0 ****  ****    0 ROOT
