@<TRIPOS>MOLECULE
GP5
   83    88     1     0     0
SMALL
bcc


@<TRIPOS>ATOM
      1 O6          11.2020     5.4900     3.5490 o          1 GP5      -0.660500
      2 C6          12.1580     5.2670     2.8260 c          1 GP5       0.664000
      3 N1          12.7660     6.3070     2.1100 ns         1 GP5      -0.530900
      4 C2          13.8260     6.1820     1.2580 cc         1 GP5       0.688300
      5 N2          14.2480     7.2890     0.6300 nv         1 GP5      -0.953800
      6 N3          14.4110     5.0360     1.0130 nd         1 GP5      -0.636100
      7 C4          13.8710     4.0040     1.6780 cd         1 GP5       0.111300
      8 C5          12.8090     4.0260     2.5620 cc         1 GP5       0.142300
      9 N7          12.5440     2.7690     3.0430 nc         1 GP5      -0.652000
     10 C8          13.4210     2.0120     2.4650 cd         1 GP5       0.454400
     11 N9          14.2640     2.6990     1.6270 na         1 GP5      -0.169900
     12 C1          15.2970     2.0960     0.8200 c5         1 GP5       0.238300
     13 O4          14.9660     2.2170    -0.5300 os         1 GP5      -0.419100
     14 C7          16.6780     2.7250     0.9760 c5         1 GP5       0.080600
     15 O2          17.2790     2.2310     2.1350 oh         1 GP5      -0.606300
     16 C3          17.3360     2.3620    -0.3550 c5         1 GP5       0.128100
     17 O3          17.8660     1.0700    -0.2880 oh         1 GP5      -0.651800
     18 C9          16.1420     2.4440    -1.3180 c5         1 GP5       0.084100
     19 C10         15.9890     3.7790    -2.0380 c3         1 GP5       0.213900
     20 O5          17.1220     4.0740    -2.8250 os         1 GP5      -0.595200
     21 PCC         17.3490     3.4440    -4.3320 p5         1 GP5       1.460800
     22 OAN         16.5180     2.2130    -4.5140 o          1 GP5      -0.852000
     23 OAE         17.2940     4.5510    -5.3320 o          1 GP5      -0.852000
     24 OBG         18.9450     3.0860    -4.1790 os         1 GP5      -0.721800
     25 PCE         19.7850     2.1530    -3.1290 p5         1 GP5       1.562800
     26 OAP         18.9800     0.9420    -2.7230 o          1 GP5      -0.885500
     27 OAG         20.3950     3.0100    -2.0670 o          1 GP5      -0.885500
     28 OBI         20.9940     1.7110    -4.1270 os         1 GP5      -0.733800
     29 PCG         20.9570     1.2860    -5.7270 p5         1 GP5       1.559800
     30 OAR         19.7430     0.4630    -6.0160 o          1 GP5      -0.885500
     31 OAI         21.2820     2.4890    -6.5520 o          1 GP5      -0.885500
     32 OBJ         22.3130     0.3640    -5.7310 os         1 GP5      -0.733800
     33 PCF         22.8540    -0.7240    -4.6210 p5         1 GP5       1.562800
     34 OAQ         21.7190    -1.4420    -3.9660 o          1 GP5      -0.885500
     35 OAH         23.9320    -0.0680    -3.8190 o          1 GP5      -0.885500
     36 OBH         23.6460    -1.7340    -5.6520 os         1 GP5      -0.721800
     37 PCD         23.0470    -2.8310    -6.7160 p5         1 GP5       1.460800
     38 OAO         23.2350    -4.2090    -6.1650 o          1 GP5      -0.852000
     39 OAF         21.7270    -2.3800    -7.2590 o          1 GP5      -0.852000
     40 OBD         24.2160    -2.6780    -7.8650 os         1 GP5      -0.595200
     41 CAV         24.3610    -1.5030    -8.6260 c3         1 GP5       0.213900
     42 CBZ         24.2130    -1.7860   -10.1080 c5         1 GP5       0.084100
     43 OBF         25.1450    -2.7920   -10.5120 os         1 GP5      -0.419100
     44 CBV         22.8380    -2.2840   -10.5460 c5         1 GP5       0.128100
     45 OAL         22.6160    -1.8290   -11.8610 oh         1 GP5      -0.651800
     46 CBW         23.0160    -3.7980   -10.5110 c5         1 GP5       0.080600
     47 OAM         22.1060    -4.4340   -11.3600 oh         1 GP5      -0.606300
     48 CXB         24.4770    -3.9370   -10.9630 c5         1 GP5       0.238300
     49 NBY         25.1340    -5.1220   -10.4720 na         1 GP5      -0.169900
     50 CAT         25.1940    -5.5890    -9.1780 cc         1 GP5       0.454400
     51 NAX         25.8960    -6.6730    -9.0660 nd         1 GP5      -0.652000
     52 CBP         26.3330    -6.9420   -10.3390 cd         1 GP5       0.142300
     53 CBR         25.8740    -5.9860   -11.2230 cc         1 GP5       0.111300
     54 NAZ         26.0900    -5.9020   -12.5430 nc         1 GP5      -0.636100
     55 CBL         26.8280    -6.8780   -13.0090 cd         1 GP5       0.688300
     56 NAB         27.0920    -6.9480   -14.3220 nv         1 GP5      -0.953800
     57 NBB         27.3290    -7.8730   -12.2200 ns         1 GP5      -0.530900
     58 CBN         27.1410    -8.0050   -10.8370 c          1 GP5       0.664000
     59 OAD         27.6400    -8.9380   -10.2310 o          1 GP5      -0.660500
     60 HN1         12.3530     7.2230     2.2390 hn         1 GP5       0.291000
     61 HN21        13.9690     8.2060     0.9330 hn         1 GP5       0.434300
     62 HN22        15.1060     7.2280     0.1080 hn         1 GP5       0.434300
     63 H8          13.5220     0.9450     2.5990 h5         1 GP5       0.104100
     64 H1          15.3390     1.0440     1.1320 h2         1 GP5       0.071200
     65 H2          16.5720     3.8160     1.0110 h1         1 GP5       0.078700
     66 H7          18.1030     2.7070     2.2820 ho         1 GP5       0.405500
     67 H3          18.1070     3.0940    -0.6230 h1         1 GP5       0.135700
     68 H6          18.3070     0.9220    -1.1600 ho         1 GP5       0.465500
     69 H4          16.2160     1.6520    -2.0640 h1         1 GP5       0.111200
     70 H5'1        15.8870     4.5860    -1.3080 h1         1 GP5       0.026200
     71 H5'2        15.0690     3.7650    -2.6310 h1         1 GP5       0.026200
     72 HAV1        25.3570    -1.0880    -8.4430 h1         1 GP5       0.026200
     73 HAV2        23.6390    -0.7260    -8.3540 h1         1 GP5       0.026200
     74 HBZ         24.4450    -0.8550   -10.6370 h1         1 GP5       0.111200
     75 HBV         22.0490    -1.9530    -9.8610 h1         1 GP5       0.135700
     76 HAL         21.8300    -2.2690   -12.2030 ho         1 GP5       0.465500
     77 HBW         22.9030    -4.1390    -9.4780 h1         1 GP5       0.078700
     78 HAM         22.0730    -5.3700   -11.1390 ho         1 GP5       0.405500
     79 HXB         24.5140    -4.0070   -12.0550 h2         1 GP5       0.071200
     80 HAT         24.6950    -5.0850    -8.3640 h5         1 GP5       0.104100
     81 HAB1        26.8540    -6.1510   -14.8890 hn         1 GP5       0.434300
     82 HAB2        27.8090    -7.5560   -14.6790 hn         1 GP5       0.434300
     83 HBB         27.8900    -8.5960   -12.6540 hn         1 GP5       0.291000
@<TRIPOS>BOND
     1     1     2 2   
     2     2     3 1   
     3     2     8 1   
     4     3     4 1   
     5     3    60 1   
     6     4     5 1   
     7     4     6 2   
     8     5    61 1   
     9     5    62 1   
    10     6     7 1   
    11     7     8 2   
    12     7    11 1   
    13     8     9 1   
    14     9    10 2   
    15    10    11 1   
    16    10    63 1   
    17    11    12 1   
    18    12    13 1   
    19    12    14 1   
    20    12    64 1   
    21    13    18 1   
    22    14    15 1   
    23    14    16 1   
    24    14    65 1   
    25    15    66 1   
    26    16    17 1   
    27    16    18 1   
    28    16    67 1   
    29    17    68 1   
    30    18    19 1   
    31    18    69 1   
    32    19    20 1   
    33    19    70 1   
    34    19    71 1   
    35    20    21 1   
    36    21    22 1   
    37    21    23 1   
    38    21    24 1   
    39    24    25 1   
    40    25    26 1   
    41    25    27 1   
    42    25    28 1   
    43    28    29 1   
    44    29    30 1   
    45    29    31 1   
    46    29    32 1   
    47    32    33 1   
    48    33    34 1   
    49    33    35 1   
    50    33    36 1   
    51    36    37 1   
    52    37    38 1   
    53    37    39 1   
    54    37    40 1   
    55    40    41 1   
    56    41    42 1   
    57    41    72 1   
    58    41    73 1   
    59    42    43 1   
    60    42    44 1   
    61    42    74 1   
    62    43    48 1   
    63    44    45 1   
    64    44    46 1   
    65    44    75 1   
    66    45    76 1   
    67    46    47 1   
    68    46    48 1   
    69    46    77 1   
    70    47    78 1   
    71    48    49 1   
    72    48    79 1   
    73    49    50 1   
    74    49    53 1   
    75    50    51 2   
    76    50    80 1   
    77    51    52 1   
    78    52    53 2   
    79    52    58 1   
    80    53    54 1   
    81    54    55 2   
    82    55    56 1   
    83    55    57 1   
    84    56    81 1   
    85    56    82 1   
    86    57    58 1   
    87    57    83 1   
    88    58    59 2   
@<TRIPOS>SUBSTRUCTURE
     1 GP5         1 TEMP              0 ****  ****    0 ROOT
