@<TRIPOS>MOLECULE
GP5
   83    88     1     0     0
SMALL
No Charge or Current Charge


@<TRIPOS>ATOM
      1 O6          11.6490     6.5290     4.5340 o          1 GP5      -0.585000
      2 C6          12.5950     6.2790     3.7980 c          1 GP5       0.521500
      3 N1          13.6150     7.1590     3.6160 ns         1 GP5      -0.463900
      4 C2          14.6750     6.9210     2.8110 cc         1 GP5       0.688300
      5 N2          15.5770     7.8870     2.7600 nv         1 GP5      -1.064200
      6 N3          14.9050     5.8460     2.0900 nd         1 GP5      -0.636100
      7 C4          13.9000     4.8830     2.2150 cd         1 GP5       0.125900
      8 C5          12.7930     5.0360     3.0090 cc         1 GP5       0.077000
      9 N7          11.9830     3.9250     2.9370 nc         1 GP5      -0.652000
     10 C8          12.6040     3.0920     2.0950 cd         1 GP5       0.454400
     11 N9          13.7910     3.6410     1.6210 na         1 GP5      -0.148500
     12 C1          14.7170     2.9970     0.6910 c5         1 GP5       0.290800
     13 O4          14.8350     3.7750    -0.5140 os         1 GP5      -0.465500
     14 C7          16.1940     2.8440     1.1600 c5         1 GP5       0.103800
     15 O2          16.4100     1.7870     2.1080 oh         1 GP5      -0.728500
     16 C3          16.8560     2.4720    -0.1970 c5         1 GP5       0.151300
     17 O3          16.7240     1.0560    -0.4450 oh         1 GP5      -0.774000
     18 C9          16.0210     3.3230    -1.2230 c5         1 GP5       0.107300
     19 C10         16.7820     4.5530    -1.7930 c3         1 GP5       0.237100
     20 O5          17.9310     4.1270    -2.5450 os         1 GP5      -0.618400
     21 PCC         17.7870     3.6470    -4.0790 p5         1 GP5       1.460800
     22 OAN         16.4890     2.9730    -4.3660 o          1 GP5      -0.852000
     23 OAE         17.9630     4.8290    -4.9740 o          1 GP5      -0.852000
     24 OBG         19.0160     2.6750    -4.2450 os         1 GP5      -0.721800
     25 PCE         19.2350     1.5770    -3.1380 p5         1 GP5       1.562800
     26 OAP         17.9940     0.9300    -2.6150 o          1 GP5      -0.885500
     27 OAG         20.0540     2.1080    -2.0080 o          1 GP5      -0.885500
     28 OBI         20.1730     0.6400    -3.9830 os         1 GP5      -0.733800
     29 PCG         19.4840    -0.6280    -4.6040 p5         1 GP5       1.559800
     30 OAR         19.2430    -1.6660    -3.5550 o          1 GP5      -0.885500
     31 OAI         18.2920    -0.2870    -5.4370 o          1 GP5      -0.885500
     32 OBJ         20.7130    -0.9550    -5.5300 os         1 GP5      -0.733800
     33 PCF         20.7680    -2.4580    -5.9900 p5         1 GP5       1.562800
     34 OAQ         19.4470    -2.9930    -6.4360 o          1 GP5      -0.885500
     35 OAH         21.4550    -3.3000    -4.9640 o          1 GP5      -0.885500
     36 OBH         21.7420    -2.1550    -7.1910 os         1 GP5      -0.721800
     37 PCD         21.7770    -3.3030    -8.2650 p5         1 GP5       1.460800
     38 OAO         21.9110    -4.6820    -7.7150 o          1 GP5      -0.852000
     39 OAF         20.7090    -3.1900    -9.2990 o          1 GP5      -0.852000
     40 OBD         23.1960    -2.8900    -8.9050 os         1 GP5      -0.618400
     41 CAV         23.2960    -1.7450    -9.7670 c3         1 GP5       0.237100
     42 CBZ         23.6910    -2.1550   -11.2230 c5         1 GP5       0.107300
     43 OBF         25.0030    -2.7870   -11.2330 os         1 GP5      -0.465500
     44 CBV         22.7350    -3.1500   -11.9610 c5         1 GP5       0.151300
     45 OAL         22.8060    -3.0490   -13.3920 oh         1 GP5      -0.774000
     46 CBW         23.3290    -4.5240   -11.5420 c5         1 GP5       0.103800
     47 OAM         22.9520    -5.5420   -12.5010 oh         1 GP5      -0.728500
     48 CXB         24.8660    -4.1960   -11.5410 c5         1 GP5       0.290800
     49 NBY         25.7210    -4.9790   -10.6500 na         1 GP5      -0.148500
     50 CAT         25.4460    -5.3360    -9.3420 cc         1 GP5       0.454400
     51 NAX         26.4150    -6.0980    -8.8310 nd         1 GP5      -0.652000
     52 CBP         27.3470    -6.2400    -9.8540 cd         1 GP5       0.077000
     53 CBR         26.9220    -5.5610   -10.9710 cc         1 GP5       0.125900
     54 NAZ         27.6050    -5.5070   -12.1710 nc         1 GP5      -0.636100
     55 CBL         28.7350    -6.1740   -12.1510 cd         1 GP5       0.688300
     56 NAB         29.4410    -6.1540   -13.2700 nv         1 GP5      -1.064200
     57 NBB         29.2550    -6.8700   -11.1190 ns         1 GP5      -0.463900
     58 CBN         28.6450    -6.9810    -9.9030 c          1 GP5       0.521500
     59 OAD         29.1390    -7.6260    -8.9870 o          1 GP5      -0.585000
     60 HN1         13.5490     8.0390     4.1010 hn         1 GP5       0.291000
     61 HN21        15.6640     8.4760     3.5780 hn         1 GP5       0.489500
     62 HN22        16.4490     7.6220     2.3170 hn         1 GP5       0.489500
     63 H8          12.2650     2.1080     1.7900 h5         1 GP5       0.104100
     64 H1          14.2940     2.0140     0.4500 h2         1 GP5       0.071200
     65 H2          16.5830     3.8000     1.5360 h1         1 GP5       0.078700
     66 H7          16.5890     1.0110     1.5140 ho         1 GP5       0.504500
     67 H3          17.9160     2.7730    -0.2080 h1         1 GP5       0.135700
     68 H6          17.2090     0.9100    -1.3370 ho         1 GP5       0.564500
     69 H4          15.6920     2.6920    -2.0560 h1         1 GP5       0.111200
     70 H5'1        17.0950     5.1960    -0.9600 h1         1 GP5       0.026200
     71 H5'2        16.0990     5.1360    -2.4260 h1         1 GP5       0.026200
     72 HAV1        24.0590    -1.0570    -9.3810 h1         1 GP5       0.026200
     73 HAV2        22.3510    -1.1860    -9.8040 h1         1 GP5       0.026200
     74 HBZ         23.7580    -1.2200   -11.7950 h1         1 GP5       0.111200
     75 HBV         21.6960    -3.0410   -11.6140 h1         1 GP5       0.135700
     76 HAL         22.7990    -4.0090   -13.6590 ho         1 GP5       0.564500
     77 HBW         22.9830    -4.7990   -10.5380 h1         1 GP5       0.078700
     78 HAM         23.1490    -6.4230   -12.0990 ho         1 GP5       0.504500
     79 HXB         25.2570    -4.3610   -12.5520 h2         1 GP5       0.071200
     80 HAT         24.5470    -5.0190    -8.8280 h5         1 GP5       0.104100
     81 HAB1        29.1290    -5.4630   -13.9430 hn         1 GP5       0.489500
     82 HAB2        30.4440    -6.2680   -13.1930 hn         1 GP5       0.489500
     83 HBB         30.1290    -7.3590   -11.2300 hn         1 GP5       0.291000
@<TRIPOS>BOND
     1     1     2 2   
     2     2     3 1   
     3     2     8 1   
     4     3     4 1   
     5     3    60 1   
     6     4     5 1   
     7     4     6 2   
     8     5    61 1   
     9     5    62 1   
    10     6     7 1   
    11     7     8 2   
    12     7    11 1   
    13     8     9 1   
    14     9    10 2   
    15    10    11 1   
    16    10    63 1   
    17    11    12 1   
    18    12    13 1   
    19    12    14 1   
    20    12    64 1   
    21    13    18 1   
    22    14    15 1   
    23    14    16 1   
    24    14    65 1   
    25    15    66 1   
    26    16    17 1   
    27    16    18 1   
    28    16    67 1   
    29    17    68 1   
    30    18    19 1   
    31    18    69 1   
    32    19    20 1   
    33    19    70 1   
    34    19    71 1   
    35    20    21 1   
    36    21    22 1   
    37    21    23 1   
    38    21    24 1   
    39    24    25 1   
    40    25    26 1   
    41    25    27 1   
    42    25    28 1   
    43    28    29 1   
    44    29    30 1   
    45    29    31 1   
    46    29    32 1   
    47    32    33 1   
    48    33    34 1   
    49    33    35 1   
    50    33    36 1   
    51    36    37 1   
    52    37    38 1   
    53    37    39 1   
    54    37    40 1   
    55    40    41 1   
    56    41    42 1   
    57    41    72 1   
    58    41    73 1   
    59    42    43 1   
    60    42    44 1   
    61    42    74 1   
    62    43    48 1   
    63    44    45 1   
    64    44    46 1   
    65    44    75 1   
    66    45    76 1   
    67    46    47 1   
    68    46    48 1   
    69    46    77 1   
    70    47    78 1   
    71    48    49 1   
    72    48    79 1   
    73    49    50 1   
    74    49    53 1   
    75    50    51 2   
    76    50    80 1   
    77    51    52 1   
    78    52    53 2   
    79    52    58 1   
    80    53    54 1   
    81    54    55 2   
    82    55    56 1   
    83    55    57 1   
    84    56    81 1   
    85    56    82 1   
    86    57    58 1   
    87    57    83 1   
    88    58    59 2   
@<TRIPOS>SUBSTRUCTURE
     1 GP5         1 TEMP              0 ****  ****    0 ROOT
