@<TRIPOS>MOLECULE
GP6
   33    34     1     0     0
SMALL
abcg2


@<TRIPOS>ATOM
      1 N1           1.9820    -0.0510     6.6560 n2         1 GP6      -0.843100
      2 N2          -0.2340     0.0680     7.2310 nv         1 GP6      -1.029200
      3 C1           0.7570     0.0110     6.2940 ce         1 GP6       0.662800
      4 C2           0.2860    -0.0200     4.8840 ca         1 GP6      -0.222900
      5 C3           1.0540     0.5520     3.8730 ca         1 GP6      -0.059500
      6 C4           0.6510     0.5320     2.5490 ca         1 GP6      -0.152500
      7 C5          -0.5490    -0.0920     2.1980 ca         1 GP6       0.006000
      8 C6          -1.3250    -0.6670     3.2080 ca         1 GP6      -0.152500
      9 C7          -0.9190    -0.6220     4.5280 ca         1 GP6      -0.059500
     10 N3          -1.0540    -0.1400     0.9020 ns         1 GP6      -0.164000
     11 C8          -0.3470    -0.0460    -0.2680 c          1 GP6       0.667100
     12 O1           0.8600     0.0880    -0.3230 o          1 GP6      -0.594100
     13 N4          -1.1560    -0.1230    -1.3710 ns         1 GP6      -0.165000
     14 C9          -0.7410    -0.0380    -2.7020 ca         1 GP6      -0.012000
     15 C10          0.4940    -0.5020    -3.1540 ca         1 GP6      -0.134500
     16 C11          0.8220    -0.4130    -4.4980 ca         1 GP6      -0.078000
     17 C12         -0.0810     0.1240    -5.4000 ca         1 GP6       0.097000
     18 C13         -1.3190     0.5740    -4.9710 ca         1 GP6      -0.078000
     19 C14         -1.6390     0.4960    -3.6270 ca         1 GP6      -0.134500
     20 CL           0.3370     0.2260    -7.0800 cl         1 GP6      -0.201000
     21 HN1          2.5860    -0.2060     5.8570 hn         1 GP6       0.389400
     22 HN21         0.0700     0.2140     8.1810 hn         1 GP6       0.465500
     23 HN22        -1.0800     0.5580     6.9930 hn         1 GP6       0.465500
     24 H3           1.9800     1.0570     4.1180 ha         1 GP6       0.123000
     25 H4           1.2660     1.0160     1.8080 ha         1 GP6       0.130000
     26 H6          -2.2550    -1.1600     2.9530 ha         1 GP6       0.130000
     27 H7          -1.5440    -1.0880     5.2790 ha         1 GP6       0.123000
     28 HN3         -2.0260    -0.4040     0.8350 hn         1 GP6       0.149000
     29 HN4         -2.1520    -0.0440    -1.2280 hn         1 GP6       0.149000
     30 H10          1.2060    -0.9470    -2.4770 ha         1 GP6       0.129500
     31 H11          1.7820    -0.7780    -4.8360 ha         1 GP6       0.131500
     32 H13         -2.0310     0.9910    -5.6700 ha         1 GP6       0.131500
     33 H14         -2.6040     0.8610    -3.2950 ha         1 GP6       0.129500
@<TRIPOS>BOND
     1     1     3 2   
     2     1    21 1   
     3     2     3 1   
     4     2    22 1   
     5     2    23 1   
     6     3     4 1   
     7     4     5 ar  
     8     4     9 ar  
     9     5     6 ar  
    10     5    24 1   
    11     6     7 ar  
    12     6    25 1   
    13     7     8 ar  
    14     7    10 1   
    15     8     9 ar  
    16     8    26 1   
    17     9    27 1   
    18    10    11 1   
    19    10    28 1   
    20    11    12 2   
    21    11    13 1   
    22    13    14 1   
    23    13    29 1   
    24    14    15 ar  
    25    14    19 ar  
    26    15    16 ar  
    27    15    30 1   
    28    16    17 ar  
    29    16    31 1   
    30    17    18 ar  
    31    17    20 1   
    32    18    19 ar  
    33    18    32 1   
    34    19    33 1   
@<TRIPOS>SUBSTRUCTURE
     1 GP6         1 TEMP              0 ****  ****    0 ROOT
