@<TRIPOS>MOLECULE
GP6
   33    34     1     0     0
SMALL
No Charge or Current Charge


@<TRIPOS>ATOM
      1 N1           1.6920    -0.4750     6.9350 n2         1 GP6      -0.843100
      2 N2          -0.3400     0.3760     7.3480 nv         1 GP6      -1.029200
      3 C1           0.5570    -0.1340     6.4870 ce         1 GP6       0.662800
      4 C2           0.2240    -0.0930     5.0320 ca         1 GP6      -0.222900
      5 C3           1.2430     0.0120     4.0580 ca         1 GP6      -0.059500
      6 C4           0.9320     0.0110     2.6870 ca         1 GP6      -0.152500
      7 C5          -0.4050    -0.1100     2.2530 ca         1 GP6       0.006000
      8 C6          -1.4170    -0.2390     3.2200 ca         1 GP6      -0.152500
      9 C7          -1.1110    -0.2370     4.5920 ca         1 GP6      -0.059500
     10 N3          -0.7960    -0.1220     0.8860 ns         1 GP6      -0.164000
     11 C8          -0.0810     0.0310    -0.2940 c          1 GP6       0.667100
     12 O1           1.1270     0.2320    -0.3500 o          1 GP6      -0.594100
     13 N4          -0.9100    -0.0700    -1.4030 ns         1 GP6      -0.165000
     14 C9          -0.6580     0.0120    -2.8020 ca         1 GP6      -0.012000
     15 C10          0.6270     0.2110    -3.3570 ca         1 GP6      -0.134500
     16 C11          0.7950     0.2800    -4.7530 ca         1 GP6      -0.078000
     17 C12         -0.3130     0.1510    -5.6040 ca         1 GP6       0.097000
     18 C13         -1.5920    -0.0470    -5.0630 ca         1 GP6      -0.078000
     19 C14         -1.7610    -0.1160    -3.6680 ca         1 GP6      -0.134500
     20 Cl          -0.0980     0.2380    -7.3480 cl         1 GP6      -0.201000
     21 HN1          2.2240    -0.8820     6.1550 hn         1 GP6       0.389400
     22 HN21         0.0580     0.6300     8.2440 hn         1 GP6       0.465500
     23 HN22        -0.9970     1.0360     6.9520 hn         1 GP6       0.465500
     24 H3           2.2850     0.1130     4.3560 ha         1 GP6       0.123000
     25 H4           1.7500     0.1020     1.9800 ha         1 GP6       0.130000
     26 H6          -2.4540    -0.3470     2.9090 ha         1 GP6       0.130000
     27 H7          -1.9200    -0.3590     5.3100 ha         1 GP6       0.123000
     28 HN3         -1.7870    -0.2720     0.7510 hn         1 GP6       0.149000
     29 HN4         -1.8820    -0.2340    -1.1780 hn         1 GP6       0.149000
     30 H10          1.5070     0.3130    -2.7310 ha         1 GP6       0.129500
     31 H11          1.7860     0.4330    -5.1740 ha         1 GP6       0.131500
     32 H13         -2.4500    -0.1470    -5.7230 ha         1 GP6       0.131500
     33 H14         -2.7590    -0.2700    -3.2610 ha         1 GP6       0.129500
@<TRIPOS>BOND
     1     1     3 2   
     2     1    21 1   
     3     2     3 1   
     4     2    22 1   
     5     2    23 1   
     6     3     4 1   
     7     4     5 ar  
     8     4     9 ar  
     9     5     6 ar  
    10     5    24 1   
    11     6     7 ar  
    12     6    25 1   
    13     7     8 ar  
    14     7    10 1   
    15     8     9 ar  
    16     8    26 1   
    17     9    27 1   
    18    10    11 1   
    19    10    28 1   
    20    11    12 2   
    21    11    13 1   
    22    13    14 1   
    23    13    29 1   
    24    14    15 ar  
    25    14    19 ar  
    26    15    16 ar  
    27    15    30 1   
    28    16    17 ar  
    29    16    31 1   
    30    17    18 ar  
    31    17    20 1   
    32    18    19 ar  
    33    18    32 1   
    34    19    33 1   
@<TRIPOS>SUBSTRUCTURE
     1 GP6         1 TEMP              0 ****  ****    0 ROOT
