@<TRIPOS>MOLECULE
GP7
  113   112     1     0     0
SMALL
No Charge or Current Charge


@<TRIPOS>ATOM
      1 P            1.6220    -7.9400     1.3730 p5         1 GP7       1.395800
      2 C1          -0.9730    -7.3550     1.3490 c3         1 GP7       0.218600
      3 C2          -1.4470    -5.9730     1.9170 c3         1 GP7       0.152300
      4 O2          -1.7110    -5.0270     0.8470 os         1 GP7      -0.417100
      5 C3          -0.5030    -5.3010     2.9520 c3         1 GP7       0.174600
      6 O3           0.6590    -4.7530     2.2960 os         1 GP7      -0.409100
      7 C11          1.6460    -4.2200     3.0810 c          1 GP7       0.627100
      8 O11          1.6220    -4.2040     4.3060 o          1 GP7      -0.518000
      9 C12          2.8390    -3.7270     2.2580 c3         1 GP7      -0.143400
     10 C13          2.9470    -2.1840     2.2420 c3         1 GP7      -0.063400
     11 C14          4.1920    -1.6820     1.4740 c3         1 GP7      -0.079400
     12 C15          4.3390    -0.1440     1.4830 c3         1 GP7      -0.073400
     13 C16          5.6000     0.3490     0.7370 c3         1 GP7      -0.074400
     14 C17          5.7630     1.8860     0.7710 c3         1 GP7      -0.075400
     15 C18          7.0250     2.3850     0.0310 c3         1 GP7      -0.073400
     16 C19          7.1840     3.9220     0.0840 c3         1 GP7      -0.075400
     17 O1P          1.4710    -8.0930     2.8500 o          1 GP7      -0.831000
     18 C20          8.4320     4.4390    -0.6670 c3         1 GP7      -0.073400
     19 C21          8.5730     5.9770    -0.6020 c3         1 GP7      -0.075400
     20 C22          9.7970     6.5150    -1.3750 c3         1 GP7      -0.074400
     21 C23          9.9230     8.0550    -1.3050 c3         1 GP7      -0.076400
     22 C24         11.1300     8.6040    -2.0970 c3         1 GP7      -0.075400
     23 C25         11.2480    10.1400    -2.0270 c3         1 GP7      -0.088100
     24 O2P          1.9840    -9.2340     0.7240 o          1 GP7      -0.831000
     25 C31         -2.7810    -5.2310     0.0140 c          1 GP7       0.600100
     26 O31         -3.5810    -6.1520     0.1160 o          1 GP7      -0.516000
     27 C32         -2.8940    -4.1330    -1.0470 c3         1 GP7      -0.142400
     28 C33         -4.0180    -3.1280    -0.6990 c3         1 GP7      -0.066400
     29 C34         -4.1330    -1.9660    -1.7110 c3         1 GP7      -0.077400
     30 C35         -5.3200    -1.0230    -1.4110 c3         1 GP7      -0.073400
     31 C36         -5.3980     0.1790    -2.3780 c3         1 GP7      -0.075400
     32 C37         -6.6170     1.0920    -2.1140 c3         1 GP7      -0.071400
     33 C38         -6.6620     2.3260    -3.0400 c3         1 GP7      -0.042200
     34 C39         -7.8960     3.1750    -2.8120 c2         1 GP7      -0.211200
     35 O3P          0.3110    -7.2730     0.7060 os         1 GP7      -0.570400
     36 C40         -7.9030     4.4200    -2.3090 c2         1 GP7      -0.223200
     37 C41         -9.1340     5.2830    -2.1300 c3         1 GP7      -0.005000
     38 C42         -9.2290     5.8190    -0.7180 c2         1 GP7      -0.211200
     39 C43         -9.4520     7.1020    -0.3900 c2         1 GP7      -0.223200
     40 C44         -9.5910     7.6350     1.0210 c3         1 GP7      -0.040200
     41 C45         -8.4910     8.6600     1.3710 c3         1 GP7      -0.073400
     42 C46         -8.6410     9.2440     2.7900 c3         1 GP7      -0.089100
     43 O4P          2.7000    -6.7820     1.0640 os         1 GP7      -0.601400
     44 C351         3.4010    -6.6890    -0.1960 c3         1 GP7       0.224600
     45 C361         2.4280    -6.5440    -1.4120 c3         1 GP7       0.147800
     46 N1           1.4720    -5.4190    -1.2890 n8         1 GP7      -0.999200
     47 H1          -0.9580    -8.0790     2.1750 h1         1 GP7       0.032200
     48 H1A         -1.7130    -7.7350     0.6350 h1         1 GP7       0.032200
     49 H2          -2.3820    -6.1690     2.4570 h1         1 GP7       0.050700
     50 H3          -1.0550    -4.5050     3.4690 h1         1 GP7       0.053200
     51 H3A         -0.2140    -6.0480     3.7030 h1         1 GP7       0.053200
     52 H12          3.7530    -4.1440     2.6960 hc         1 GP7       0.086700
     53 H12A         2.7310    -4.0730     1.2240 hc         1 GP7       0.086700
     54 H13          2.0420    -1.7620     1.7870 hc         1 GP7       0.043200
     55 H13A         2.9900    -1.8150     3.2750 hc         1 GP7       0.043200
     56 H14          5.0910    -2.1280     1.9190 hc         1 GP7       0.044200
     57 H14A         4.1420    -2.0350     0.4360 hc         1 GP7       0.044200
     58 H15          3.4490     0.3050     1.0240 hc         1 GP7       0.033700
     59 H15A         4.3760     0.2080     2.5220 hc         1 GP7       0.033700
     60 H16          6.4880    -0.1160     1.1850 hc         1 GP7       0.038200
     61 H16A         5.5560     0.0130    -0.3070 hc         1 GP7       0.038200
     62 H17          4.8760     2.3510     0.3230 hc         1 GP7       0.034700
     63 H17A         5.8060     2.2190     1.8160 hc         1 GP7       0.034700
     64 H18          7.9140     1.9160     0.4730 hc         1 GP7       0.037200
     65 H18A         6.9800     2.0610    -1.0170 hc         1 GP7       0.037200
     66 H19          6.2880     4.3880    -0.3460 hc         1 GP7       0.035700
     67 H19A         7.2380     4.2410     1.1320 hc         1 GP7       0.035700
     68 H20          9.3310     3.9760    -0.2400 hc         1 GP7       0.036700
     69 H20A         8.3760     4.1250    -1.7170 hc         1 GP7       0.036700
     70 H21          7.6630     6.4380    -1.0070 hc         1 GP7       0.036200
     71 H21A         8.6470     6.2870     0.4490 hc         1 GP7       0.036200
     72 H22         10.7100     6.0600    -0.9700 hc         1 GP7       0.036700
     73 H22A         9.7230     6.2070    -2.4260 hc         1 GP7       0.036700
     74 H23          9.0020     8.5090    -1.6940 hc         1 GP7       0.036200
     75 H23A        10.0130     8.3620    -0.2560 hc         1 GP7       0.036200
     76 H24         12.0550     8.1570    -1.7100 hc         1 GP7       0.036200
     77 H24A        11.0440     8.3010    -3.1490 hc         1 GP7       0.036200
     78 H25         12.1150    10.4840    -2.6050 hc         1 GP7       0.030033
     79 H25A        10.3500    10.6180    -2.4390 hc         1 GP7       0.030033
     80 H25B        11.3740    10.4730    -0.9900 hc         1 GP7       0.030033
     81 H32         -1.9440    -3.5890    -1.1080 hc         1 GP7       0.073200
     82 H32A        -3.1220    -4.5980    -2.0120 hc         1 GP7       0.073200
     83 H33         -4.9750    -3.6640    -0.6550 hc         1 GP7       0.049700
     84 H33A        -3.8370    -2.7160     0.3020 hc         1 GP7       0.049700
     85 H34         -3.1990    -1.3900    -1.7020 hc         1 GP7       0.037200
     86 H34A        -4.2470    -2.3760    -2.7220 hc         1 GP7       0.037200
     87 H35         -6.2540    -1.5950    -1.4700 hc         1 GP7       0.038200
     88 H35A        -5.2360    -0.6520    -0.3830 hc         1 GP7       0.038200
     89 H36         -4.4780     0.7700    -2.2890 hc         1 GP7       0.037200
     90 H36A        -5.4430    -0.1900    -3.4100 hc         1 GP7       0.037200
     91 H37         -7.5370     0.5090    -2.2460 hc         1 GP7       0.039700
     92 H37A        -6.5990     1.4300    -1.0700 hc         1 GP7       0.039700
     93 H38         -5.7540     2.9230    -2.8800 hc         1 GP7       0.044200
     94 H38A        -6.6340     1.9940    -4.0850 hc         1 GP7       0.044200
     95 H39         -8.8300     2.6990    -3.1200 ha         1 GP7       0.164000
     96 H40         -6.9700     4.9030    -2.0110 ha         1 GP7       0.168000
     97 H41         -9.1080     6.1120    -2.8490 hc         1 GP7       0.046700
     98 H41A       -10.0380     4.7060    -2.3640 hc         1 GP7       0.046700
     99 H42         -9.1210     5.0580     0.0580 ha         1 GP7       0.170000
    100 H43         -9.5690     7.8590    -1.1690 ha         1 GP7       0.162000
    101 H44        -10.5740     8.1090     1.1380 hc         1 GP7       0.042200
    102 H44A        -9.5550     6.8120     1.7460 hc         1 GP7       0.042200
    103 H45         -7.5080     8.1810     1.2810 hc         1 GP7       0.039700
    104 H45A        -8.5140     9.4810     0.6440 hc         1 GP7       0.039700
    105 H46         -7.8360     9.9600     2.9970 hc         1 GP7       0.031033
    106 H46A        -9.5990     9.7660     2.8950 hc         1 GP7       0.031033
    107 H46B        -8.5950     8.4480     3.5440 hc         1 GP7       0.031033
    108 H63          4.0700    -5.8180    -0.1790 h1         1 GP7       0.029700
    109 H64          4.0300    -7.5760    -0.3490 h1         1 GP7       0.029700
    110 H65          3.0170    -6.3950    -2.3270 h1         1 GP7       0.015700
    111 H66          1.8540    -7.4720    -1.5370 h1         1 GP7       0.015700
    112 H67          0.7740    -5.4950    -2.0360 hn         1 GP7       0.387000
    113 H68          0.9280    -5.5970    -0.4310 hn         1 GP7       0.387000
@<TRIPOS>BOND
     1     1    17 1   
     2     1    24 1   
     3     1    35 1   
     4     1    43 1   
     5     2     3 1   
     6     2    35 1   
     7     2    47 1   
     8     2    48 1   
     9     3     4 1   
    10     3     5 1   
    11     3    49 1   
    12     4    25 1   
    13     5     6 1   
    14     5    50 1   
    15     5    51 1   
    16     6     7 1   
    17     7     8 2   
    18     7     9 1   
    19     9    10 1   
    20     9    52 1   
    21     9    53 1   
    22    10    11 1   
    23    10    54 1   
    24    10    55 1   
    25    11    12 1   
    26    11    56 1   
    27    11    57 1   
    28    12    13 1   
    29    12    58 1   
    30    12    59 1   
    31    13    14 1   
    32    13    60 1   
    33    13    61 1   
    34    14    15 1   
    35    14    62 1   
    36    14    63 1   
    37    15    16 1   
    38    15    64 1   
    39    15    65 1   
    40    16    18 1   
    41    16    66 1   
    42    16    67 1   
    43    18    19 1   
    44    18    68 1   
    45    18    69 1   
    46    19    20 1   
    47    19    70 1   
    48    19    71 1   
    49    20    21 1   
    50    20    72 1   
    51    20    73 1   
    52    21    22 1   
    53    21    74 1   
    54    21    75 1   
    55    22    23 1   
    56    22    76 1   
    57    22    77 1   
    58    23    78 1   
    59    23    79 1   
    60    23    80 1   
    61    25    26 2   
    62    25    27 1   
    63    27    28 1   
    64    27    81 1   
    65    27    82 1   
    66    28    29 1   
    67    28    83 1   
    68    28    84 1   
    69    29    30 1   
    70    29    85 1   
    71    29    86 1   
    72    30    31 1   
    73    30    87 1   
    74    30    88 1   
    75    31    32 1   
    76    31    89 1   
    77    31    90 1   
    78    32    33 1   
    79    32    91 1   
    80    32    92 1   
    81    33    34 1   
    82    33    93 1   
    83    33    94 1   
    84    34    36 2   
    85    34    95 1   
    86    36    37 1   
    87    36    96 1   
    88    37    38 1   
    89    37    97 1   
    90    37    98 1   
    91    38    39 2   
    92    38    99 1   
    93    39    40 1   
    94    39   100 1   
    95    40    41 1   
    96    40   101 1   
    97    40   102 1   
    98    41    42 1   
    99    41   103 1   
   100    41   104 1   
   101    42   105 1   
   102    42   106 1   
   103    42   107 1   
   104    43    44 1   
   105    44    45 1   
   106    44   108 1   
   107    44   109 1   
   108    45    46 1   
   109    45   110 1   
   110    45   111 1   
   111    46   112 1   
   112    46   113 1   
@<TRIPOS>SUBSTRUCTURE
     1 GP7         1 TEMP              0 ****  ****    0 ROOT
