@<TRIPOS>MOLECULE
GP7
  113   112     1     0     0
SMALL
abcg2


@<TRIPOS>ATOM
      1 P            1.6510    -5.4170     0.3620 p5         1 GP7       1.395800
      2 C1          -0.6770    -5.1660     1.5550 c3         1 GP7       0.218600
      3 C2          -1.0740    -3.9690     2.4000 c3         1 GP7       0.152300
      4 O2          -1.7560    -2.9880     1.6110 os         1 GP7      -0.417100
      5 C3           0.0640    -3.2680     3.1070 c3         1 GP7       0.174600
      6 O3           0.8700    -2.5770     2.1620 os         1 GP7      -0.409100
      7 C11          2.0930    -2.2310     2.5390 c          1 GP7       0.627100
      8 O11          2.4960    -2.3490     3.6710 o          1 GP7      -0.518000
      9 C12          2.8990    -1.6770     1.3980 c3         1 GP7      -0.143400
     10 C13          4.0350    -0.7690     1.8440 c3         1 GP7      -0.063400
     11 C14          4.9010    -0.3000     0.6810 c3         1 GP7      -0.079400
     12 C15          6.0170     0.6290     1.1370 c3         1 GP7      -0.073400
     13 C16          6.9860     1.0290     0.0300 c3         1 GP7      -0.074400
     14 C17          8.0700     1.9790     0.5240 c3         1 GP7      -0.075400
     15 C18          9.1430     2.2930    -0.5110 c3         1 GP7      -0.073400
     16 C19         10.2260     3.2160     0.0320 c3         1 GP7      -0.075400
     17 O1P          2.4040    -5.1220     1.6240 o          1 GP7      -0.831000
     18 C20         11.3730     3.4640    -0.9390 c3         1 GP7      -0.073400
     19 C21         12.4770     4.3250    -0.3370 c3         1 GP7      -0.075400
     20 C22         13.6630     4.5420    -1.2690 c3         1 GP7      -0.074400
     21 C23         14.7780     5.3600    -0.6300 c3         1 GP7      -0.076400
     22 C24         15.9840     5.5610    -1.5400 c3         1 GP7      -0.075400
     23 C25         17.0940     6.3640    -0.8760 c3         1 GP7      -0.088100
     24 O2P          1.6090    -6.8260    -0.1500 o          1 GP7      -0.831000
     25 C31         -3.0700    -3.0930     1.4280 c          1 GP7       0.600100
     26 O31         -3.7480    -3.9580     1.9230 o          1 GP7      -0.516000
     27 C32         -3.5780    -2.0100     0.5160 c3         1 GP7      -0.142400
     28 C33         -5.0930    -1.8920     0.4790 c3         1 GP7      -0.066400
     29 C34         -5.5480    -0.8110    -0.4930 c3         1 GP7      -0.077400
     30 C35         -7.0610    -0.6430    -0.5370 c3         1 GP7      -0.073400
     31 C36         -7.5100     0.4250    -1.5250 c3         1 GP7      -0.075400
     32 C37         -9.0210     0.6120    -1.5670 c3         1 GP7      -0.071400
     33 C38         -9.4550     1.6780    -2.5730 c3         1 GP7      -0.042200
     34 C39        -10.9410     1.8280    -2.6490 c2         1 GP7      -0.211200
     35 O3P          0.1250    -4.8100     0.4540 os         1 GP7      -0.570400
     36 C40        -11.6110     2.9450    -2.3770 c2         1 GP7      -0.223200
     37 C41        -13.1040     3.0900    -2.4250 c3         1 GP7      -0.005000
     38 C42        -13.6560     3.4450    -1.0740 c2         1 GP7      -0.211200
     39 C43        -14.2390     4.6010    -0.7730 c2         1 GP7      -0.223200
     40 C44        -14.7410     4.9950     0.5790 c3         1 GP7      -0.040200
     41 C45        -13.9960     6.2070     1.1420 c3         1 GP7      -0.073400
     42 C46        -14.5370     6.6570     2.4910 c3         1 GP7      -0.089100
     43 O4P          2.0980    -4.4020    -0.8440 os         1 GP7      -0.601400
     44 C351         3.0810    -4.8350    -1.7730 c3         1 GP7       0.224600
     45 C361         3.3810    -3.7030    -2.7280 c3         1 GP7       0.147800
     46 N1           4.0150    -2.5830    -2.0510 n8         1 GP7      -0.999200
     47 H1          -0.1900    -5.8840     2.2250 h1         1 GP7       0.032200
     48 H1A         -1.5830    -5.6560     1.1850 h1         1 GP7       0.032200
     49 H2          -1.7310    -4.3470     3.1900 h1         1 GP7       0.050700
     50 H3          -0.3380    -2.5600     3.8370 h1         1 GP7       0.053200
     51 H3A          0.6460    -4.0150     3.6490 h1         1 GP7       0.053200
     52 H12          3.2940    -2.5430     0.8580 hc         1 GP7       0.086700
     53 H12A         2.2370    -1.1610     0.6970 hc         1 GP7       0.086700
     54 H13          3.6270     0.1010     2.3680 hc         1 GP7       0.043200
     55 H13A         4.6650    -1.2950     2.5650 hc         1 GP7       0.043200
     56 H14          5.3260    -1.1700     0.1700 hc         1 GP7       0.044200
     57 H14A         4.2780     0.2090    -0.0630 hc         1 GP7       0.044200
     58 H15          5.5780     1.5300     1.5790 hc         1 GP7       0.033700
     59 H15A         6.5820     0.1440     1.9410 hc         1 GP7       0.033700
     60 H16          7.4510     0.1280    -0.3840 hc         1 GP7       0.038200
     61 H16A         6.4350     1.4940    -0.7950 hc         1 GP7       0.038200
     62 H17          7.6070     2.9120     0.8640 hc         1 GP7       0.034700
     63 H17A         8.5500     1.5440     1.4080 hc         1 GP7       0.034700
     64 H18          9.6010     1.3570    -0.8500 hc         1 GP7       0.037200
     65 H18A         8.6840     2.7430    -1.3990 hc         1 GP7       0.037200
     66 H19          9.7780     4.1730     0.3210 hc         1 GP7       0.035700
     67 H19A        10.6300     2.7840     0.9550 hc         1 GP7       0.035700
     68 H20         11.7960     2.5020    -1.2510 hc         1 GP7       0.036700
     69 H20A        10.9940     3.9380    -1.8510 hc         1 GP7       0.036700
     70 H21         12.0630     5.2960    -0.0430 hc         1 GP7       0.036200
     71 H21A        12.8290     3.8560     0.5890 hc         1 GP7       0.036200
     72 H22         14.0610     3.5690    -1.5790 hc         1 GP7       0.036700
     73 H22A        13.3260     5.0380    -2.1860 hc         1 GP7       0.036700
     74 H23         14.3850     6.3380    -0.3280 hc         1 GP7       0.036200
     75 H23A        15.1010     4.8670     0.2940 hc         1 GP7       0.036200
     76 H24         16.3710     4.5840    -1.8470 hc         1 GP7       0.036200
     77 H24A        15.6660     6.0630    -2.4590 hc         1 GP7       0.036200
     78 H25         17.9560     6.4830    -1.5350 hc         1 GP7       0.030033
     79 H25A        16.7470     7.3620    -0.6010 hc         1 GP7       0.030033
     80 H25B        17.4390     5.8740     0.0360 hc         1 GP7       0.030033
     81 H32         -3.1230    -1.0590     0.8060 hc         1 GP7       0.073200
     82 H32A        -3.1920    -2.2240    -0.4870 hc         1 GP7       0.073200
     83 H33         -5.5350    -2.8490     0.1920 hc         1 GP7       0.049700
     84 H33A        -5.4700    -1.6630     1.4800 hc         1 GP7       0.049700
     85 H34         -5.0850     0.1440    -0.2210 hc         1 GP7       0.037200
     86 H34A        -5.1800    -1.0500    -1.4970 hc         1 GP7       0.037200
     87 H35         -7.5260    -1.6000    -0.7990 hc         1 GP7       0.038200
     88 H35A        -7.4270    -0.3920     0.4650 hc         1 GP7       0.038200
     89 H36         -7.0350     1.3790    -1.2680 hc         1 GP7       0.037200
     90 H36A        -7.1490     0.1670    -2.5260 hc         1 GP7       0.037200
     91 H37         -9.4990    -0.3410    -1.8190 hc         1 GP7       0.039700
     92 H37A        -9.3870     0.8830    -0.5720 hc         1 GP7       0.039700
     93 H38         -8.9970     2.6370    -2.3130 hc         1 GP7       0.044200
     94 H38A        -9.0660     1.4030    -3.5600 hc         1 GP7       0.044200
     95 H39        -11.4990     0.9390    -2.9390 ha         1 GP7       0.164000
     96 H40        -11.0590     3.8340    -2.0790 ha         1 GP7       0.168000
     97 H41        -13.3780     3.8680    -3.1430 hc         1 GP7       0.046700
     98 H41A       -13.5500     2.1550    -2.7800 hc         1 GP7       0.046700
     99 H42        -13.5300     2.6930    -0.2970 ha         1 GP7       0.170000
    100 H43        -14.3490     5.3510    -1.5560 ha         1 GP7       0.162000
    101 H44        -15.8080     5.2400     0.5150 hc         1 GP7       0.042200
    102 H44A       -14.6560     4.1540     1.2740 hc         1 GP7       0.042200
    103 H45        -12.9340     5.9610     1.2320 hc         1 GP7       0.039700
    104 H45A       -14.0570     7.0320     0.4260 hc         1 GP7       0.039700
    105 H46        -13.9830     7.5140     2.8750 hc         1 GP7       0.031033
    106 H46A       -15.5870     6.9470     2.4200 hc         1 GP7       0.031033
    107 H46B       -14.4650     5.8590     3.2320 hc         1 GP7       0.031033
    108 H63          4.0060    -5.1280    -1.2620 h1         1 GP7       0.029700
    109 H64          2.7230    -5.7010    -2.3370 h1         1 GP7       0.029700
    110 H65          4.0740    -4.0910    -3.4790 h1         1 GP7       0.015700
    111 H66          2.4600    -3.4360    -3.2670 h1         1 GP7       0.015700
    112 H67          4.2690    -1.8770    -2.7300 hn         1 GP7       0.387000
    113 H68          3.3490    -2.1390    -1.4330 hn         1 GP7       0.387000
@<TRIPOS>BOND
     1     1    17 1   
     2     1    24 1   
     3     1    35 1   
     4     1    43 1   
     5     2     3 1   
     6     2    35 1   
     7     2    47 1   
     8     2    48 1   
     9     3     4 1   
    10     3     5 1   
    11     3    49 1   
    12     4    25 1   
    13     5     6 1   
    14     5    50 1   
    15     5    51 1   
    16     6     7 1   
    17     7     8 2   
    18     7     9 1   
    19     9    10 1   
    20     9    52 1   
    21     9    53 1   
    22    10    11 1   
    23    10    54 1   
    24    10    55 1   
    25    11    12 1   
    26    11    56 1   
    27    11    57 1   
    28    12    13 1   
    29    12    58 1   
    30    12    59 1   
    31    13    14 1   
    32    13    60 1   
    33    13    61 1   
    34    14    15 1   
    35    14    62 1   
    36    14    63 1   
    37    15    16 1   
    38    15    64 1   
    39    15    65 1   
    40    16    18 1   
    41    16    66 1   
    42    16    67 1   
    43    18    19 1   
    44    18    68 1   
    45    18    69 1   
    46    19    20 1   
    47    19    70 1   
    48    19    71 1   
    49    20    21 1   
    50    20    72 1   
    51    20    73 1   
    52    21    22 1   
    53    21    74 1   
    54    21    75 1   
    55    22    23 1   
    56    22    76 1   
    57    22    77 1   
    58    23    78 1   
    59    23    79 1   
    60    23    80 1   
    61    25    26 2   
    62    25    27 1   
    63    27    28 1   
    64    27    81 1   
    65    27    82 1   
    66    28    29 1   
    67    28    83 1   
    68    28    84 1   
    69    29    30 1   
    70    29    85 1   
    71    29    86 1   
    72    30    31 1   
    73    30    87 1   
    74    30    88 1   
    75    31    32 1   
    76    31    89 1   
    77    31    90 1   
    78    32    33 1   
    79    32    91 1   
    80    32    92 1   
    81    33    34 1   
    82    33    93 1   
    83    33    94 1   
    84    34    36 2   
    85    34    95 1   
    86    36    37 1   
    87    36    96 1   
    88    37    38 1   
    89    37    97 1   
    90    37    98 1   
    91    38    39 2   
    92    38    99 1   
    93    39    40 1   
    94    39   100 1   
    95    40    41 1   
    96    40   101 1   
    97    40   102 1   
    98    41    42 1   
    99    41   103 1   
   100    41   104 1   
   101    42   105 1   
   102    42   106 1   
   103    42   107 1   
   104    43    44 1   
   105    44    45 1   
   106    44   108 1   
   107    44   109 1   
   108    45    46 1   
   109    45   110 1   
   110    45   111 1   
   111    46   112 1   
   112    46   113 1   
@<TRIPOS>SUBSTRUCTURE
     1 GP7         1 TEMP              0 ****  ****    0 ROOT
