@<TRIPOS>MOLECULE
GP8
   44    46     1     0     0
SMALL
No Charge or Current Charge


@<TRIPOS>ATOM
      1 N1           0.1770     0.0740     8.9390 nv         1 GP8      -1.030200
      2 N2          -1.8030    -0.8110     8.3690 n2         1 GP8      -0.844100
      3 C1          -0.6590    -0.4050     8.0030 ce         1 GP8       0.663800
      4 C2          -0.2580    -0.2580     6.5730 ca         1 GP8      -0.226900
      5 C3          -1.2310    -0.1190     5.5570 ca         1 GP8      -0.058500
      6 C4          -0.8540    -0.0180     4.2060 ca         1 GP8      -0.156500
      7 C5           0.5060    -0.0700     3.8340 ca         1 GP8       0.010000
      8 C6           1.4730    -0.2330     4.8410 ca         1 GP8      -0.156500
      9 C7           1.1010    -0.3320     6.1920 ca         1 GP8      -0.058500
     10 N3           0.9640     0.0220     2.4910 ns         1 GP8      -0.164000
     11 C8           0.3020     0.2210     1.2870 c          1 GP8       0.665100
     12 O1          -0.9090     0.3740     1.1810 o          1 GP8      -0.599100
     13 N4           1.1890     0.2260     0.2180 ns         1 GP8      -0.168000
     14 C9           1.0060     0.3990    -1.1840 ca         1 GP8      -0.056000
     15 C10         -0.2440     0.6780    -1.7810 ca         1 GP8      -0.097000
     16 C11         -0.3460     0.8380    -3.1750 ca         1 GP8      -0.141500
     17 C12          0.7970     0.7130    -3.9870 ca         1 GP8       0.125100
     18 C13          2.0430     0.4510    -3.3990 ca         1 GP8      -0.141500
     19 C14          2.1460     0.2920    -2.0060 ca         1 GP8      -0.097000
     20 O2           0.7240     0.8780    -5.3520 os         1 GP8      -0.255200
     21 C15         -0.3320     0.4180    -6.1070 ca         1 GP8       0.093100
     22 C16         -0.7750     1.1880    -7.1960 ca         1 GP8      -0.116000
     23 C17         -1.8420     0.7350    -7.9920 ca         1 GP8      -0.102500
     24 C18         -2.4610    -0.4940    -7.7030 ca         1 GP8      -0.109000
     25 C19         -2.0110    -1.2720    -6.6220 ca         1 GP8      -0.102500
     26 C20         -0.9440    -0.8200    -5.8260 ca         1 GP8      -0.116000
     27 HN11         0.8280     0.7760     8.6120 hn         1 GP8       0.465500
     28 HN12        -0.2640     0.2590     9.8310 hn         1 GP8       0.465500
     29 HN2         -2.2820    -1.1780     7.5370 hn         1 GP8       0.387400
     30 H3          -2.2890    -0.0690     5.8080 ha         1 GP8       0.122000
     31 H4          -1.6380     0.0960     3.4660 ha         1 GP8       0.130500
     32 H6           2.5280    -0.2880     4.5770 ha         1 GP8       0.130500
     33 H7           1.8780    -0.4770     6.9410 ha         1 GP8       0.122000
     34 HN3          1.9660    -0.0790     2.3990 hn         1 GP8       0.147000
     35 HN4          2.1540     0.0790     0.4840 hn         1 GP8       0.148000
     36 H10         -1.1470     0.7820    -1.1880 ha         1 GP8       0.124000
     37 H11         -1.3110     1.0630    -3.6210 ha         1 GP8       0.130500
     38 H13          2.9280     0.3680    -4.0230 ha         1 GP8       0.130500
     39 H14          3.1180     0.0840    -1.5640 ha         1 GP8       0.124000
     40 H16         -0.2930     2.1370    -7.4200 ha         1 GP8       0.129000
     41 H17         -2.1870     1.3340    -8.8320 ha         1 GP8       0.117500
     42 H18         -3.2870    -0.8450    -8.3200 ha         1 GP8       0.117000
     43 H19         -2.4860    -2.2270    -6.4040 ha         1 GP8       0.117500
     44 H20         -0.5930    -1.4310    -4.9980 ha         1 GP8       0.129000
@<TRIPOS>BOND
     1     1     3 1   
     2     1    27 1   
     3     1    28 1   
     4     2     3 2   
     5     2    29 1   
     6     3     4 1   
     7     4     5 ar  
     8     4     9 ar  
     9     5     6 ar  
    10     5    30 1   
    11     6     7 ar  
    12     6    31 1   
    13     7     8 ar  
    14     7    10 1   
    15     8     9 ar  
    16     8    32 1   
    17     9    33 1   
    18    10    11 1   
    19    10    34 1   
    20    11    12 2   
    21    11    13 1   
    22    13    14 1   
    23    13    35 1   
    24    14    15 ar  
    25    14    19 ar  
    26    15    16 ar  
    27    15    36 1   
    28    16    17 ar  
    29    16    37 1   
    30    17    18 ar  
    31    17    20 1   
    32    18    19 ar  
    33    18    38 1   
    34    19    39 1   
    35    20    21 1   
    36    21    22 ar  
    37    21    26 ar  
    38    22    23 ar  
    39    22    40 1   
    40    23    24 ar  
    41    23    41 1   
    42    24    25 ar  
    43    24    42 1   
    44    25    26 ar  
    45    25    43 1   
    46    26    44 1   
@<TRIPOS>SUBSTRUCTURE
     1 GP8         1 TEMP              0 ****  ****    0 ROOT
