@<TRIPOS>MOLECULE
GP8
   44    46     1     0     0
SMALL
abcg2


@<TRIPOS>ATOM
      1 N1          -0.8110     0.8220     8.4280 nv         1 GP8      -1.030200
      2 N2          -1.3900    -1.3760     8.1240 n2         1 GP8      -0.844100
      3 C1          -0.8950    -0.2960     7.6490 ce         1 GP8       0.663800
      4 C2          -0.3340    -0.1490     6.2800 ca         1 GP8      -0.226900
      5 C3          -0.8660    -0.8760     5.2190 ca         1 GP8      -0.058500
      6 C4          -0.3620    -0.7700     3.9330 ca         1 GP8      -0.156500
      7 C5           0.7130     0.0850     3.6760 ca         1 GP8       0.010000
      8 C6           1.2590     0.8080     4.7400 ca         1 GP8      -0.156500
      9 C7           0.7420     0.6970     6.0160 ca         1 GP8      -0.058500
     10 N3           1.3080     0.2450     2.4300 ns         1 GP8      -0.164000
     11 C8           0.7630    -0.0240     1.1990 c          1 GP8       0.665100
     12 O1          -0.3550    -0.4730     1.0340 o          1 GP8      -0.599100
     13 N4           1.6160     0.2790     0.1750 ns         1 GP8      -0.168000
     14 C9           1.3270     0.0940    -1.1860 ca         1 GP8      -0.056000
     15 C10          0.1040     0.4460    -1.7450 ca         1 GP8      -0.097000
     16 C11         -0.1280     0.2810    -3.1050 ca         1 GP8      -0.141500
     17 C12          0.8750    -0.2190    -3.9260 ca         1 GP8       0.125100
     18 C13          2.1070    -0.5570    -3.3780 ca         1 GP8      -0.141500
     19 C14          2.3230    -0.4100    -2.0200 ca         1 GP8      -0.097000
     20 O2           0.7370    -0.4060    -5.2690 os         1 GP8      -0.255200
     21 C15         -0.4460    -0.0570    -5.8730 ca         1 GP8       0.093100
     22 C16         -0.6220     1.2370    -6.3400 ca         1 GP8      -0.116000
     23 C17         -1.8020     1.5670    -6.9920 ca         1 GP8      -0.102500
     24 C18         -2.7970     0.6140    -7.1710 ca         1 GP8      -0.109000
     25 C19         -2.6070    -0.6770    -6.6970 ca         1 GP8      -0.102500
     26 C20         -1.4310    -1.0190    -6.0420 ca         1 GP8      -0.116000
     27 HN11        -0.8560     1.7190     7.9740 hn         1 GP8       0.465500
     28 HN12        -1.3050     0.7830     9.3060 hn         1 GP8       0.465500
     29 HN2         -1.2800    -2.1390     7.4660 hn         1 GP8       0.387400
     30 H3          -1.7070    -1.5380     5.3830 ha         1 GP8       0.122000
     31 H4          -0.8090    -1.3560     3.1470 ha         1 GP8       0.130500
     32 H6           2.1010     1.4680     4.5650 ha         1 GP8       0.130500
     33 H7           1.1980     1.2700     6.8130 ha         1 GP8       0.122000
     34 HN3          2.1800     0.7540     2.4420 hn         1 GP8       0.147000
     35 HN4          2.5830     0.4620     0.3990 hn         1 GP8       0.148000
     36 H10         -0.6830     0.8670    -1.1360 ha         1 GP8       0.124000
     37 H11         -1.0910     0.5670    -3.5050 ha         1 GP8       0.130500
     38 H13          2.8940    -0.9460    -4.0120 ha         1 GP8       0.130500
     39 H14          3.2820    -0.6930    -1.6030 ha         1 GP8       0.124000
     40 H16          0.1580     1.9750    -6.2020 ha         1 GP8       0.129000
     41 H17         -1.9430     2.5750    -7.3630 ha         1 GP8       0.117500
     42 H18         -3.7140     0.8760    -7.6820 ha         1 GP8       0.117000
     43 H19         -3.3760    -1.4260    -6.8360 ha         1 GP8       0.117500
     44 H20         -1.2780    -2.0240    -5.6710 ha         1 GP8       0.129000
@<TRIPOS>BOND
     1     1     3 1   
     2     1    27 1   
     3     1    28 1   
     4     2     3 2   
     5     2    29 1   
     6     3     4 1   
     7     4     5 ar  
     8     4     9 ar  
     9     5     6 ar  
    10     5    30 1   
    11     6     7 ar  
    12     6    31 1   
    13     7     8 ar  
    14     7    10 1   
    15     8     9 ar  
    16     8    32 1   
    17     9    33 1   
    18    10    11 1   
    19    10    34 1   
    20    11    12 2   
    21    11    13 1   
    22    13    14 1   
    23    13    35 1   
    24    14    15 ar  
    25    14    19 ar  
    26    15    16 ar  
    27    15    36 1   
    28    16    17 ar  
    29    16    37 1   
    30    17    18 ar  
    31    17    20 1   
    32    18    19 ar  
    33    18    38 1   
    34    19    39 1   
    35    20    21 1   
    36    21    22 ar  
    37    21    26 ar  
    38    22    23 ar  
    39    22    40 1   
    40    23    24 ar  
    41    23    41 1   
    42    24    25 ar  
    43    24    42 1   
    44    25    26 ar  
    45    25    43 1   
    46    26    44 1   
@<TRIPOS>SUBSTRUCTURE
     1 GP8         1 TEMP              0 ****  ****    0 ROOT
