@<TRIPOS>MOLECULE
GPB
   52    54     1     0     0
SMALL
No Charge or Current Charge


@<TRIPOS>ATOM
      1 N1          11.6710     1.3470    11.9460 nb         1 GPB      -0.261000
      2 C2          12.2870     0.6530    12.9180 ca         1 GPB       0.373900
      3 NA2         12.1860    -0.6960    12.8480 nv         1 GPB      -1.053900
      4 N3          12.9880     1.1380    13.9550 nb         1 GPB      -0.284000
      5 C4          13.0990     2.4830    14.0340 ca         1 GPB       0.208300
      6 C5          13.8650     3.0190    15.2330 c3         1 GPB      -0.148400
      7 C4A         12.4900     3.2890    13.0440 ca         1 GPB      -0.226800
      8 C6          12.4240     4.7220    12.8510 cc         1 GPB      -0.101400
      9 C7          11.6510     4.9060    11.7130 cd         1 GPB      -0.145100
     10 N8          11.2530     3.6520    11.1990 na         1 GPB      -0.320400
     11 C8A         11.7830     2.6840    12.0280 ca         1 GPB       0.167500
     12 C9          13.0920     5.8250    13.6360 c3         1 GPB       0.002800
     13 C10         14.5430     6.1030    13.1840 c3         1 GPB      -0.019100
     14 C11         14.7450     7.5550     9.0690 ca         1 GPB      -0.113600
     15 C12         14.9420     6.1870     9.3680 ca         1 GPB      -0.080000
     16 C13         14.8820     5.7210    10.6920 ca         1 GPB      -0.127000
     17 C14         14.6220     6.6110    11.7480 ca         1 GPB      -0.098300
     18 C15         14.4220     7.9720    11.4640 ca         1 GPB      -0.127000
     19 C16         14.4820     8.4440    10.1410 ca         1 GPB      -0.080000
     20 O           15.0420     7.2470     6.7030 o          1 GPB      -0.648100
     21 N           14.6250     9.3690     7.4000 ns         1 GPB      -0.444900
     22 CA          14.6210    10.0330     6.0740 c3         1 GPB      -0.047300
     23 CB          13.2700     9.8170     5.3400 c3         1 GPB      -0.044400
     24 CG          13.2420    10.3670     3.8910 c3         1 GPB      -0.193400
     25 CD          11.8950    10.0410     3.2230 c          1 GPB       0.715000
     26 OE1         11.7860     8.9800     2.6270 o          1 GPB      -0.768000
     27 OE2         10.9780    10.8370     3.3510 o          1 GPB      -0.768000
     28 CT          14.9800    11.5440     6.2360 c          1 GPB       0.720000
     29 O1          14.4040    12.1870     7.1050 o          1 GPB      -0.740500
     30 O2          15.9200    11.9880     5.5920 o          1 GPB      -0.740500
     31 HA22        12.8000    -1.2600    13.4310 hn         1 GPB       0.475000
     32 HA21        11.8520    -1.1180    11.9850 hn         1 GPB       0.475000
     33 H53         13.2110     3.6150    15.8800 hc         1 GPB       0.050700
     34 H52         14.2740     2.2090    15.8480 hc         1 GPB       0.050700
     35 H51         14.7080     3.6430    14.9220 hc         1 GPB       0.050700
     36 H7          11.3830     5.8400    11.2220 h4         1 GPB       0.229000
     37 H8          10.6920     3.4830    10.3700 hn         1 GPB       0.368000
     38 H91         12.5100     6.7490    13.5290 hc         1 GPB       0.037200
     39 H92         13.0800     5.5970    14.7060 hc         1 GPB       0.037200
     40 H101        14.9880     6.8400    13.8640 hc         1 GPB       0.035200
     41 H102        15.1410     5.1910    13.2920 hc         1 GPB       0.035200
     42 H12         15.1430     5.4760     8.5690 ha         1 GPB       0.135000
     43 H13         15.0300     4.6630    10.8950 ha         1 GPB       0.096500
     44 H15         14.2150     8.6710    12.2720 ha         1 GPB       0.096500
     45 H16         14.3200     9.5050     9.9700 ha         1 GPB       0.135000
     46 H           14.4570     9.9500     8.2120 hn         1 GPB       0.331500
     47 HA1         15.4160     9.5770     5.4700 h1         1 GPB       0.052700
     48 HB2         13.0510     8.7420     5.3080 hc         1 GPB       0.029700
     49 HB1         12.4640    10.2830     5.9200 hc         1 GPB       0.029700
     50 HG2         13.3690    11.4530     3.9730 hc         1 GPB       0.030700
     51 HG1         14.0610     9.8640     3.3620 hc         1 GPB       0.030700
     52 C           14.8180     8.0210     7.6260 c          1 GPB       0.584700
@<TRIPOS>BOND
     1     1     2 ar  
     2     1    11 ar  
     3     2     3 1   
     4     2     4 ar  
     5     3    31 1   
     6     3    32 1   
     7     4     5 ar  
     8     5     6 1   
     9     5     7 ar  
    10     6    33 1   
    11     6    34 1   
    12     6    35 1   
    13     7     8 1   
    14     7    11 ar  
    15     8     9 2   
    16     8    12 1   
    17     9    10 1   
    18     9    36 1   
    19    10    11 1   
    20    10    37 1   
    21    12    13 1   
    22    12    38 1   
    23    12    39 1   
    24    13    17 1   
    25    13    40 1   
    26    13    41 1   
    27    14    15 ar  
    28    14    19 ar  
    29    14    52 1   
    30    15    16 ar  
    31    15    42 1   
    32    16    17 ar  
    33    16    43 1   
    34    17    18 ar  
    35    18    19 ar  
    36    18    44 1   
    37    19    45 1   
    38    20    52 2   
    39    21    22 1   
    40    21    46 1   
    41    21    52 1   
    42    22    23 1   
    43    22    28 1   
    44    22    47 1   
    45    23    24 1   
    46    23    48 1   
    47    23    49 1   
    48    24    25 1   
    49    24    50 1   
    50    24    51 1   
    51    25    26 1   
    52    25    27 1   
    53    28    29 1   
    54    28    30 1   
@<TRIPOS>SUBSTRUCTURE
     1 GPB         1 TEMP              0 ****  ****    0 ROOT
