@<TRIPOS>MOLECULE
GPB
   52    54     1     0     0
SMALL
bcc


@<TRIPOS>ATOM
      1 N1          11.2140     2.1480    11.6050 nb         1 GPB      -0.787000
      2 C2          11.9220     1.2030    12.2100 ca         1 GPB       0.899900
      3 NA2         11.6400    -0.0910    11.8980 nv         1 GPB      -0.943500
      4 N3          12.8710     1.3910    13.1430 nb         1 GPB      -0.810000
      5 C4          13.1660     2.6250    13.5270 ca         1 GPB       0.536600
      6 C5          14.2440     2.7690    14.5530 c3         1 GPB      -0.148400
      7 C4A         12.4950     3.7160    12.9670 ca         1 GPB      -0.357400
      8 C6          12.4840     5.1520    13.0880 cc         1 GPB      -0.101400
      9 C7          11.5340     5.5850    12.2150 cd         1 GPB      -0.095100
     10 N8          10.9550     4.5160    11.5630 na         1 GPB      -0.270100
     11 C8A         11.5220     3.3740    12.0030 ca         1 GPB       0.495800
     12 C9          13.3510     6.0410    13.9160 c3         1 GPB       0.002800
     13 C10         14.7980     6.1490    13.4030 c3         1 GPB      -0.019100
     14 C11         14.9110     7.5920     9.3400 ca         1 GPB      -0.113600
     15 C12         15.0390     6.2330     9.6150 ca         1 GPB      -0.098000
     16 C13         15.0040     5.7700    10.9210 ca         1 GPB      -0.145000
     17 C14         14.8670     6.6500    11.9910 ca         1 GPB      -0.098300
     18 C15         14.7570     8.0100    11.7130 ca         1 GPB      -0.145000
     19 C16         14.7730     8.4770    10.4080 ca         1 GPB      -0.098000
     20 O           15.5850     7.3880     7.0750 o          1 GPB      -0.648100
     21 N           14.3320     9.1830     7.6390 ns         1 GPB      -0.511900
     22 CA          14.3210     9.8460     6.3510 c3         1 GPB      -0.047300
     23 CB          13.2820     9.2000     5.4180 c3         1 GPB      -0.044400
     24 CG          13.3430     9.6720     3.9740 c3         1 GPB      -0.193400
     25 CD          12.4280     8.9210     2.9850 c          1 GPB       0.925600
     26 OE1         12.5840     9.2120     1.7800 o          1 GPB      -0.873300
     27 OE2         11.6060     8.1040     3.4490 o          1 GPB      -0.873300
     28 CT          14.0140    11.3460     6.5930 c          1 GPB       0.930600
     29 O1          13.3440    11.6090     7.6150 o          1 GPB      -0.845800
     30 O2          14.4340    12.1470     5.7420 o          1 GPB      -0.845800
     31 HA22        12.3390    -0.7760    12.1290 hn         1 GPB       0.419800
     32 HA21        11.1460    -0.2570    11.0370 hn         1 GPB       0.419800
     33 H53         14.0460     3.5850    15.2450 hc         1 GPB       0.050700
     34 H52         14.3580     1.8470    15.1190 hc         1 GPB       0.050700
     35 H51         15.2010     2.9780    14.0680 hc         1 GPB       0.050700
     36 H7          11.2230     6.5940    11.9940 h4         1 GPB       0.179000
     37 H8          10.2190     4.5750    10.8780 hn         1 GPB       0.317700
     38 H91         12.9110     7.0420    13.9350 hc         1 GPB       0.037200
     39 H92         13.3760     5.7040    14.9560 hc         1 GPB       0.037200
     40 H101        15.3470     6.8220    14.0650 hc         1 GPB       0.035200
     41 H102        15.2870     5.1760    13.4720 hc         1 GPB       0.035200
     42 H12         15.1590     5.5300     8.8020 ha         1 GPB       0.153000
     43 H13         15.0890     4.7070    11.1110 ha         1 GPB       0.114500
     44 H15         14.6670     8.7180    12.5290 ha         1 GPB       0.114500
     45 H16         14.7100     9.5460    10.2390 ha         1 GPB       0.153000
     46 H           13.7910     9.6620     8.3450 hn         1 GPB       0.331500
     47 HA1         15.3110     9.7520     5.8970 h1         1 GPB       0.052700
     48 HB2         13.4390     8.1200     5.4470 hc         1 GPB       0.029700
     49 HB1         12.2850     9.3730     5.8350 hc         1 GPB       0.029700
     50 HG2         13.1000    10.7370     3.9130 hc         1 GPB       0.030700
     51 HG1         14.3740     9.6000     3.6110 hc         1 GPB       0.030700
     52 C           14.9740     8.0450     7.9140 c          1 GPB       0.651700
@<TRIPOS>BOND
     1     1     2 ar  
     2     1    11 ar  
     3     2     3 1   
     4     2     4 ar  
     5     3    31 1   
     6     3    32 1   
     7     4     5 ar  
     8     5     6 1   
     9     5     7 ar  
    10     6    33 1   
    11     6    34 1   
    12     6    35 1   
    13     7     8 1   
    14     7    11 ar  
    15     8     9 2   
    16     8    12 1   
    17     9    10 1   
    18     9    36 1   
    19    10    11 1   
    20    10    37 1   
    21    12    13 1   
    22    12    38 1   
    23    12    39 1   
    24    13    17 1   
    25    13    40 1   
    26    13    41 1   
    27    14    15 ar  
    28    14    19 ar  
    29    14    52 1   
    30    15    16 ar  
    31    15    42 1   
    32    16    17 ar  
    33    16    43 1   
    34    17    18 ar  
    35    18    19 ar  
    36    18    44 1   
    37    19    45 1   
    38    20    52 2   
    39    21    22 1   
    40    21    46 1   
    41    21    52 1   
    42    22    23 1   
    43    22    28 1   
    44    22    47 1   
    45    23    24 1   
    46    23    48 1   
    47    23    49 1   
    48    24    25 1   
    49    24    50 1   
    50    24    51 1   
    51    25    26 1   
    52    25    27 1   
    53    28    29 1   
    54    28    30 1   
@<TRIPOS>SUBSTRUCTURE
     1 GPB         1 TEMP              0 ****  ****    0 ROOT
