@<TRIPOS>MOLECULE
GPC
   63    67     1     0     0
SMALL
No Charge or Current Charge


@<TRIPOS>ATOM
      1 N1G         27.9680    42.3260    32.5040 ns         1 GPC      -0.459400
      2 C2G         28.6020    41.9390    31.3810 cc         1 GPC       0.731800
      3 N2G         28.6860    42.8180    30.4130 nv         1 GPC      -1.013200
      4 N3G         29.2010    40.8030    31.1560 nd         1 GPC      -0.690100
      5 C4G         29.2080    39.9570    32.2600 cd         1 GPC       0.174400
      6 C5G         28.5970    40.2600    33.4470 cc         1 GPC       0.058500
      7 C6G         27.8730    41.5470    33.6130 c          1 GPC       0.517500
      8 O6G         27.2640    41.9090    34.6100 o          1 GPC      -0.551000
      9 N7G         28.7940    39.2540    34.3630 nc         1 GPC      -0.617000
     10 C8G         29.5310    38.3400    33.7270 cd         1 GPC       0.406400
     11 N9G         29.8290    38.7350    32.4240 na         1 GPC      -0.193500
     12 C1D         30.6730    37.9780    31.4810 c5         1 GPC       0.273300
     13 C2D         30.8910    38.5490    30.0450 c5         1 GPC       0.146300
     14 F2D         31.3360    37.5390    29.1740 f          1 GPC      -0.249000
     15 C3D         32.0180    39.5810    30.3710 c5         1 GPC       0.188300
     16 O3D         32.7430    40.0200    29.1890 os         1 GPC      -0.573400
     17 C4D         32.9340    38.6830    31.2480 c5         1 GPC       0.148300
     18 O4D         32.0090    37.8830    32.0480 os         1 GPC      -0.475000
     19 C5D         33.9320    39.4640    32.1470 c3         1 GPC       0.169600
     20 O5D         34.8890    38.5820    32.7640 oh         1 GPC      -0.719000
     21 PC          31.9680    40.9490    28.1130 p5         1 GPC       1.389800
     22 O1C         32.8650    41.3280    26.9830 o          1 GPC      -0.797000
     23 O2C         30.7070    40.3250    27.6210 o          1 GPC      -0.797000
     24 O5B         31.6550    42.2190    29.0560 os         1 GPC      -0.594400
     25 C5X         32.7150    43.1030    29.4480 c3         1 GPC       0.212600
     26 C4X         32.1170    44.4810    29.8690 c5         1 GPC       0.163300
     27 O4B         31.0780    44.3080    30.8830 os         1 GPC      -0.474000
     28 C3X         33.1810    45.4380    30.5120 c5         1 GPC       0.139300
     29 O3B         32.8380    46.8270    30.4080 oh         1 GPC      -0.711000
     30 C2X         33.1110    44.9840    31.9980 c5         1 GPC       0.092300
     31 O2B         33.7010    45.9690    32.8720 oh         1 GPC      -0.714000
     32 C1X         31.5550    44.8480    32.1340 c5         1 GPC       0.286700
     33 N1C         31.2300    43.9260    33.2540 n          1 GPC      -0.334000
     34 CC2         30.5880    44.4460    34.3950 c          1 GPC       0.707400
     35 O2X         30.2650    45.6180    34.4840 o          1 GPC      -0.561000
     36 N3C         30.3210    43.5970    35.4340 nc         1 GPC      -0.787100
     37 CC4         30.6630    42.3560    35.3610 cd         1 GPC       0.780500
     38 N4C         30.3000    41.6170    36.3850 nv         1 GPC      -1.021200
     39 CC5         31.3280    41.7730    34.2660 cd         1 GPC      -0.472600
     40 CC6         31.6130    42.5890    33.1990 cc         1 GPC       0.020600
     41 H1G         27.5160    43.2250    32.5240 hn         1 GPC       0.326500
     42 H21G        29.2510    43.6160    30.6910 hn         1 GPC       0.511500
     43 H22G        29.1350    42.3810    29.6190 hn         1 GPC       0.511500
     44 H8G         29.8910    37.4040    34.1370 h5         1 GPC       0.057100
     45 H1D         30.2170    36.9820    31.4220 h2         1 GPC       0.080700
     46 H2D         29.9810    38.9900    29.6260 h1         1 GPC       0.131700
     47 H3D         31.6660    40.4500    30.9370 h1         1 GPC       0.062700
     48 H4D         33.5100    38.0040    30.6050 h1         1 GPC       0.084700
     49 H51G        33.3680    40.0150    32.9110 h1         1 GPC       0.030200
     50 H52G        34.4530    40.2040    31.5250 h1         1 GPC       0.030200
     51 HO5G        35.4550    39.1350    33.3510 ho         1 GPC       0.491000
     52 H51C        33.4200    43.2700    28.6230 h1         1 GPC       0.029700
     53 H52C        33.2780    42.6700    30.2840 h1         1 GPC       0.029700
     54 H4B         31.6720    44.9360    28.9740 h1         1 GPC       0.104700
     55 H3B         34.1820    45.2640    30.0910 h1         1 GPC       0.061700
     56 HO3C        33.1740    47.2090    31.2570 ho         1 GPC       0.520000
     57 H2B         33.6170    44.0170    32.1230 h1         1 GPC       0.045700
     58 HO2C        33.7530    45.5710    33.7750 ho         1 GPC       0.517000
     59 H1B         31.0940    45.8280    32.3140 h2         1 GPC       0.120700
     60 H41C        29.6390    42.1050    36.9720 hn         1 GPC       0.508000
     61 H42C        30.0140    40.6790    36.1360 hn         1 GPC       0.508000
     62 H5C         31.5840    40.7210    34.2700 ha         1 GPC       0.221000
     63 H6C         32.0930    42.2980    32.2700 h4         1 GPC       0.213000
@<TRIPOS>BOND
     1     1     2 1   
     2     1     7 1   
     3     1    41 1   
     4     2     3 1   
     5     2     4 2   
     6     3    42 1   
     7     3    43 1   
     8     4     5 1   
     9     5     6 2   
    10     5    11 1   
    11     6     7 1   
    12     6     9 1   
    13     7     8 2   
    14     9    10 2   
    15    10    11 1   
    16    10    44 1   
    17    11    12 1   
    18    12    13 1   
    19    12    18 1   
    20    12    45 1   
    21    13    14 1   
    22    13    15 1   
    23    13    46 1   
    24    15    16 1   
    25    15    17 1   
    26    15    47 1   
    27    16    21 1   
    28    17    18 1   
    29    17    19 1   
    30    17    48 1   
    31    19    20 1   
    32    19    49 1   
    33    19    50 1   
    34    20    51 1   
    35    21    22 1   
    36    21    23 1   
    37    21    24 1   
    38    24    25 1   
    39    25    26 1   
    40    25    52 1   
    41    25    53 1   
    42    26    27 1   
    43    26    28 1   
    44    26    54 1   
    45    27    32 1   
    46    28    29 1   
    47    28    30 1   
    48    28    55 1   
    49    29    56 1   
    50    30    31 1   
    51    30    32 1   
    52    30    57 1   
    53    31    58 1   
    54    32    33 1   
    55    32    59 1   
    56    33    34 1   
    57    33    40 1   
    58    34    35 2   
    59    34    36 1   
    60    36    37 2   
    61    37    38 1   
    62    37    39 1   
    63    38    60 1   
    64    38    61 1   
    65    39    40 2   
    66    39    62 1   
    67    40    63 1   
@<TRIPOS>SUBSTRUCTURE
     1 GPC         1 TEMP              0 ****  ****    0 ROOT
