@<TRIPOS>MOLECULE
GPC
   63    67     1     0     0
SMALL
abcg2


@<TRIPOS>ATOM
      1 N1G         27.6990    41.9080    33.0860 ns         1 GPC      -0.459400
      2 C2G         28.6100    41.9180    32.0630 cc         1 GPC       0.731800
      3 N2G         28.7370    43.0640    31.3610 nv         1 GPC      -1.013200
      4 N3G         29.3280    40.8600    31.7390 nd         1 GPC      -0.690100
      5 C4G         29.0840    39.7870    32.5110 cd         1 GPC       0.174400
      6 C5G         28.1820    39.6780    33.5640 cc         1 GPC       0.058500
      7 C6G         27.3990    40.8150    33.9190 c          1 GPC       0.517500
      8 O6G         26.5620    40.9310    34.8120 o          1 GPC      -0.551000
      9 N7G         28.2120    38.4050    34.1070 nc         1 GPC      -0.617000
     10 C8G         29.1030    37.7640    33.4030 cd         1 GPC       0.406400
     11 N9G         29.6700    38.5430    32.4090 na         1 GPC      -0.193500
     12 C1D         30.7700    38.1040    31.5830 c5         1 GPC       0.273300
     13 C2D         30.8280    38.7090    30.1720 c5         1 GPC       0.146300
     14 F2D         31.1180    37.6640    29.2820 f          1 GPC      -0.249000
     15 C3D         32.0230    39.6590    30.2560 c5         1 GPC       0.188300
     16 O3D         32.7010    39.9060    29.0480 os         1 GPC      -0.573400
     17 C4D         32.9280    38.9320    31.2470 c5         1 GPC       0.148300
     18 O4D         32.0020    38.4350    32.2250 os         1 GPC      -0.475000
     19 C5D         33.9660    39.7980    31.9060 c3         1 GPC       0.169600
     20 O5D         34.8420    38.9680    32.6660 oh         1 GPC      -0.719000
     21 PC          32.0730    40.9270    27.9280 p5         1 GPC       1.389800
     22 O1C         33.1670    41.1170    26.9340 o          1 GPC      -0.797000
     23 O2C         30.7130    40.4750    27.5200 o          1 GPC      -0.797000
     24 O5B         31.8310    42.2810    28.7960 os         1 GPC      -0.594400
     25 C5X         32.9410    43.0240    29.2980 c3         1 GPC       0.212600
     26 C4X         32.4300    44.3620    29.7830 c5         1 GPC       0.163300
     27 O4B         31.4330    44.1610    30.8160 os         1 GPC      -0.474000
     28 C3X         33.5160    45.2390    30.4010 c5         1 GPC       0.139300
     29 O3B         33.2410    46.5950    30.0730 oh         1 GPC      -0.711000
     30 C2X         33.3390    44.9910    31.9010 c5         1 GPC       0.092300
     31 O2B         33.8370    46.0720    32.6600 oh         1 GPC      -0.714000
     32 C1X         31.8200    44.8270    32.0140 c5         1 GPC       0.286700
     33 N1C         31.3620    44.0530    33.1540 n          1 GPC      -0.334000
     34 CC2         30.4500    44.6230    34.0780 c          1 GPC       0.707400
     35 O2X         30.1170    45.8030    33.9500 o          1 GPC      -0.561000
     36 N3C         29.9780    43.8310    35.0710 nc         1 GPC      -0.787100
     37 CC4         30.3570    42.5620    35.1750 cd         1 GPC       0.780500
     38 N4C         29.8420    41.8310    36.1720 nv         1 GPC      -1.021200
     39 CC5         31.2810    41.9650    34.2640 cd         1 GPC      -0.472600
     40 CC6         31.7370    42.7490    33.2680 cc         1 GPC       0.020600
     41 H1G         27.1970    42.7600    33.3010 hn         1 GPC       0.326500
     42 H21G        28.3330    43.9090    31.7340 hn         1 GPC       0.511500
     43 H22G        29.6020    43.1940    30.8500 hn         1 GPC       0.511500
     44 H8G         29.4030    36.7350    33.5350 h5         1 GPC       0.057100
     45 H1D         30.6770    37.0200    31.4940 h2         1 GPC       0.080700
     46 H2D         29.9060    39.1740    29.8430 h1         1 GPC       0.131700
     47 H3D         31.6640    40.5880    30.7050 h1         1 GPC       0.062700
     48 H4D         33.4230    38.0950    30.7410 h1         1 GPC       0.084700
     49 H51G        33.4710    40.5310    32.5490 h1         1 GPC       0.030200
     50 H52G        34.5130    40.3320    31.1220 h1         1 GPC       0.030200
     51 HO5G        35.5080    39.5300    33.0800 ho         1 GPC       0.491000
     52 H51C        33.6760    43.1850    28.5060 h1         1 GPC       0.029700
     53 H52C        33.4180    42.4760    30.1150 h1         1 GPC       0.029700
     54 H4B         31.9520    44.8910    28.9560 h1         1 GPC       0.104700
     55 H3B         34.5160    44.9560    30.0610 h1         1 GPC       0.061700
     56 HO3C        33.7680    47.1500    30.6660 ho         1 GPC       0.520000
     57 H2B         33.8400    44.0590    32.1710 h1         1 GPC       0.045700
     58 HO2C        34.1760    45.7420    33.5010 ho         1 GPC       0.517000
     59 H1B         31.3450    45.8010    32.0960 h2         1 GPC       0.120700
     60 H41C        29.1310    42.2270    36.7650 hn         1 GPC       0.508000
     61 H42C        30.0320    40.8450    36.2390 hn         1 GPC       0.508000
     62 H5C         31.5640    40.9260    34.3360 ha         1 GPC       0.221000
     63 H6C         32.3950    42.3790    32.4970 h4         1 GPC       0.213000
@<TRIPOS>BOND
     1     1     2 1   
     2     1     7 1   
     3     1    41 1   
     4     2     3 1   
     5     2     4 2   
     6     3    42 1   
     7     3    43 1   
     8     4     5 1   
     9     5     6 2   
    10     5    11 1   
    11     6     7 1   
    12     6     9 1   
    13     7     8 2   
    14     9    10 2   
    15    10    11 1   
    16    10    44 1   
    17    11    12 1   
    18    12    13 1   
    19    12    18 1   
    20    12    45 1   
    21    13    14 1   
    22    13    15 1   
    23    13    46 1   
    24    15    16 1   
    25    15    17 1   
    26    15    47 1   
    27    16    21 1   
    28    17    18 1   
    29    17    19 1   
    30    17    48 1   
    31    19    20 1   
    32    19    49 1   
    33    19    50 1   
    34    20    51 1   
    35    21    22 1   
    36    21    23 1   
    37    21    24 1   
    38    24    25 1   
    39    25    26 1   
    40    25    52 1   
    41    25    53 1   
    42    26    27 1   
    43    26    28 1   
    44    26    54 1   
    45    27    32 1   
    46    28    29 1   
    47    28    30 1   
    48    28    55 1   
    49    29    56 1   
    50    30    31 1   
    51    30    32 1   
    52    30    57 1   
    53    31    58 1   
    54    32    33 1   
    55    32    59 1   
    56    33    34 1   
    57    33    40 1   
    58    34    35 2   
    59    34    36 1   
    60    36    37 2   
    61    37    38 1   
    62    37    39 1   
    63    38    60 1   
    64    38    61 1   
    65    39    40 2   
    66    39    62 1   
    67    40    63 1   
@<TRIPOS>SUBSTRUCTURE
     1 GPC         1 TEMP              0 ****  ****    0 ROOT
