@<TRIPOS>MOLECULE
GPD
   61    64     1     0     0
SMALL
No Charge or Current Charge


@<TRIPOS>ATOM
      1 N4A         -4.0640     0.7420    -3.6950 n8         1 GPD      -0.987200
      2 C4G         -4.4880     1.1470    -2.3290 c6         1 GPD       0.129500
      3 C5G         -3.8360     2.4950    -1.8590 c6         1 GPD       0.175300
      4 C6G         -4.2470     3.7080    -2.7360 c3         1 GPD      -0.080100
      5 O5G         -4.2350     2.8160    -0.5020 os         1 GPD      -0.477000
      6 C3G         -4.1660     0.0160    -1.3150 c6         1 GPD      -0.060400
      7 C2G         -4.5500     0.4330     0.1320 c6         1 GPD       0.132300
      8 O2G         -5.9970     0.4920     0.2250 oh         1 GPD      -0.748000
      9 C1G         -3.8630     1.8220     0.4810 c6         1 GPD       0.423300
     10 O1G         -2.4330     1.8000     0.5580 os         1 GPD      -0.596400
     11 P2          -1.7380     0.9060     1.7000 p5         1 GPD       1.468800
     12 O3P         -2.6210     0.8730     2.9020 o          1 GPD      -0.839000
     13 O4P         -0.3930     1.4780     2.0000 o          1 GPD      -0.839000
     14 OPP         -1.6770    -0.4340     0.8760 os         1 GPD      -0.692800
     15 P           -1.2930    -1.6760     1.7620 p5         1 GPD       1.461800
     16 O1P         -2.4210    -2.1370     2.6230 o          1 GPD      -0.856500
     17 O2P         -0.0110    -1.5580     2.5170 o          1 GPD      -0.856500
     18 O5          -1.1230    -2.7370     0.5580 os         1 GPD      -0.569400
     19 C5           0.1040    -2.8950    -0.1730 c3         1 GPD       0.218600
     20 C4           0.3830    -1.6940    -1.1360 c5         1 GPD       0.156300
     21 O4           1.0040    -0.5860    -0.4270 os         1 GPD      -0.384000
     22 C3           1.4260    -2.0600    -2.2470 c5         1 GPD       0.096300
     23 O3           1.4190    -1.1510    -3.3560 oh         1 GPD      -0.715000
     24 C2           2.7430    -1.9210    -1.4290 c5         1 GPD       0.063300
     25 O2           3.8980    -1.8480    -2.2910 oh         1 GPD      -0.710000
     26 C1           2.4330    -0.5940    -0.6530 c5         1 GPD       0.324300
     27 N9           3.1350    -0.3530     0.6060 na         1 GPD      -0.179500
     28 C8           3.1950    -1.2050     1.6930 cc         1 GPD       0.508400
     29 N7           3.9910    -0.7200     2.6480 nd         1 GPD      -0.606000
     30 C9           3.9250     0.7280     0.9090 cc         1 GPD       0.089400
     31 C7           4.4460     0.4990     2.1610 cd         1 GPD       0.118500
     32 C6           5.3620     1.5150     2.7640 c          1 GPD       0.518500
     33 O6           5.8920     1.4400     3.8650 o          1 GPD      -0.551000
     34 N3           4.1910     1.8390     0.1330 nc         1 GPD      -0.666100
     35 C10          4.9980     2.6950     0.7150 cd         1 GPD       0.674800
     36 N1           5.5650     2.5830     1.9360 ns         1 GPD      -0.460400
     37 N2           5.2950     3.7790     0.0150 nv         1 GPD      -1.053200
     38 HN4A        -4.5680    -0.1130    -3.9560 hn         1 GPD       0.372000
     39 HN4B        -4.4030     1.4390    -4.3670 hn         1 GPD       0.372000
     40 H4G         -5.5790     1.2830    -2.3690 h1         1 GPD       0.018700
     41 H5G         -2.7400     2.4000    -1.8970 h1         1 GPD       0.100700
     42 H6G         -5.3360     3.8300    -2.7610 hc         1 GPD       0.029700
     43 H6GA        -3.8120     4.6370    -2.3480 hc         1 GPD       0.029700
     44 H6GB        -3.8970     3.5910    -3.7680 hc         1 GPD       0.029700
     45 H3G         -4.6940    -0.9070    -1.5910 hc         1 GPD       0.048700
     46 H3GA        -3.0940    -0.2190    -1.3570 hc         1 GPD       0.048700
     47 H2G         -4.1870    -0.3390     0.8240 h1         1 GPD       0.049700
     48 HO2G        -6.2260     0.5620     1.1820 ho         1 GPD       0.493000
     49 H1G         -4.2540     2.1520     1.4560 h2         1 GPD       0.072700
     50 H5           0.9480    -3.0350     0.5120 h1         1 GPD       0.009700
     51 H5'A         0.0330    -3.8070    -0.7780 h1         1 GPD       0.009700
     52 H4          -0.5690    -1.3670    -1.5730 h1         1 GPD       0.090700
     53 H3           1.2850    -3.0890    -2.6050 h1         1 GPD       0.043700
     54 HO3          2.3720    -1.0520    -3.5980 ho         1 GPD       0.499000
     55 H2           2.8510    -2.7580    -0.7230 h1         1 GPD       0.076700
     56 HO2          4.2090    -2.7700    -2.4600 ho         1 GPD       0.495000
     57 H1           2.6790     0.2550    -1.3010 h2         1 GPD       0.087700
     58 H8           2.6540    -2.1440     1.7280 h5         1 GPD       0.145100
     59 HN1          6.1610     3.3160     2.2840 hn         1 GPD       0.296500
     60 HN2          5.0240     3.7330    -0.9590 hn         1 GPD       0.474500
     61 HN2A         6.1770     4.2380     0.2090 hn         1 GPD       0.474500
@<TRIPOS>BOND
     1     1     2 1   
     2     1    38 1   
     3     1    39 1   
     4     2     3 1   
     5     2     6 1   
     6     2    40 1   
     7     3     4 1   
     8     3     5 1   
     9     3    41 1   
    10     4    42 1   
    11     4    43 1   
    12     4    44 1   
    13     5     9 1   
    14     6     7 1   
    15     6    45 1   
    16     6    46 1   
    17     7     8 1   
    18     7     9 1   
    19     7    47 1   
    20     8    48 1   
    21     9    10 1   
    22     9    49 1   
    23    10    11 1   
    24    11    12 1   
    25    11    13 1   
    26    11    14 1   
    27    14    15 1   
    28    15    16 1   
    29    15    17 1   
    30    15    18 1   
    31    18    19 1   
    32    19    20 1   
    33    19    50 1   
    34    19    51 1   
    35    20    21 1   
    36    20    22 1   
    37    20    52 1   
    38    21    26 1   
    39    22    23 1   
    40    22    24 1   
    41    22    53 1   
    42    23    54 1   
    43    24    25 1   
    44    24    26 1   
    45    24    55 1   
    46    25    56 1   
    47    26    27 1   
    48    26    57 1   
    49    27    28 1   
    50    27    30 1   
    51    28    29 2   
    52    28    58 1   
    53    29    31 1   
    54    30    31 2   
    55    30    34 1   
    56    31    32 1   
    57    32    33 2   
    58    32    36 1   
    59    34    35 2   
    60    35    36 1   
    61    35    37 1   
    62    36    59 1   
    63    37    60 1   
    64    37    61 1   
@<TRIPOS>SUBSTRUCTURE
     1 GPD         1 TEMP              0 ****  ****    0 ROOT
