@<TRIPOS>MOLECULE
GPD
   61    64     1     0     0
SMALL
abcg2


@<TRIPOS>ATOM
      1 N4A         -4.3480     3.0990    -3.0490 n8         1 GPD      -0.987200
      2 C4G         -4.8570     2.6640    -1.7560 c6         1 GPD       0.129500
      3 C5G         -3.7180     2.6440    -0.7370 c6         1 GPD       0.175300
      4 C6G         -3.1720     4.0220    -0.4250 c3         1 GPD      -0.080100
      5 O5G         -4.1730     2.1010     0.4990 os         1 GPD      -0.477000
      6 C3G         -5.4290     1.2560    -1.8890 c6         1 GPD      -0.060400
      7 C2G         -5.8380     0.6840    -0.5430 c6         1 GPD       0.132300
      8 O2G         -6.9560     1.4090    -0.0790 oh         1 GPD      -0.748000
      9 C1G         -4.6780     0.8020     0.4500 c6         1 GPD       0.423300
     10 O1G         -3.7140    -0.1350     0.0700 os         1 GPD      -0.596400
     11 P2          -2.3530    -0.3350     1.0000 p5         1 GPD       1.468800
     12 O3P         -2.6880    -0.0210     2.4220 o          1 GPD      -0.839000
     13 O4P         -1.1950     0.2840     0.2950 o          1 GPD      -0.839000
     14 OPP         -2.3420    -1.9750     0.7830 os         1 GPD      -0.692800
     15 P           -1.1540    -2.9950     1.2350 p5         1 GPD       1.461800
     16 O1P         -1.7970    -4.3190     1.5020 o          1 GPD      -0.856500
     17 O2P         -0.2500    -2.3720     2.2560 o          1 GPD      -0.856500
     18 O5          -0.3780    -3.0580    -0.2190 os         1 GPD      -0.569400
     19 C5           0.9330    -3.5620    -0.2560 c3         1 GPD       0.218600
     20 C4           1.6760    -2.9170    -1.4130 c5         1 GPD       0.156300
     21 O4           1.6470    -1.4910    -1.3150 os         1 GPD      -0.384000
     22 C3           3.1480    -3.2980    -1.4160 c5         1 GPD       0.096300
     23 O3           3.6470    -3.1920    -2.7250 oh         1 GPD      -0.715000
     24 C2           3.7290    -2.2020    -0.5190 c5         1 GPD       0.063300
     25 O2           5.0890    -1.9470    -0.7120 oh         1 GPD      -0.710000
     26 C1           2.9000    -0.9910    -0.9560 c5         1 GPD       0.324300
     27 N9           2.7500     0.0100     0.0730 na         1 GPD      -0.179500
     28 C8           1.9040    -0.0130     1.1590 cc         1 GPD       0.508400
     29 N7           2.0800     1.0060     1.9430 nd         1 GPD      -0.606000
     30 C9           3.5060     1.1340     0.1900 cc         1 GPD       0.089400
     31 C7           3.0800     1.7380     1.3570 cd         1 GPD       0.118500
     32 C6           3.6900     2.9620     1.7560 c          1 GPD       0.518500
     33 O6           3.4680     3.6490     2.7380 o          1 GPD      -0.551000
     34 N3           4.4560     1.5480    -0.6650 nc         1 GPD      -0.666100
     35 C10          5.0130     2.6740    -0.3080 cd         1 GPD       0.674800
     36 N1           4.6680     3.3490     0.8270 ns         1 GPD      -0.460400
     37 N2           5.9490     3.2420    -1.0940 nv         1 GPD      -1.053200
     38 HN4A        -5.0750     2.9900    -3.7460 hn         1 GPD       0.372000
     39 HN4B        -4.1520     4.0920    -3.0250 hn         1 GPD       0.372000
     40 H4G         -5.6440     3.3270    -1.3670 h1         1 GPD       0.018700
     41 H5G         -2.9080     2.0250    -1.1430 h1         1 GPD       0.100700
     42 H6G         -3.9570     4.6850    -0.0530 hc         1 GPD       0.029700
     43 H6GA        -2.3850     3.9650     0.3270 hc         1 GPD       0.029700
     44 H6GB        -2.7360     4.4800    -1.3130 hc         1 GPD       0.029700
     45 H3G         -6.2920     1.2540    -2.5630 hc         1 GPD       0.048700
     46 H3GA        -4.6750     0.6070    -2.3430 hc         1 GPD       0.048700
     47 H2G         -6.0850    -0.3800    -0.6560 h1         1 GPD       0.049700
     48 HO2G        -7.2770     0.9930     0.7270 ho         1 GPD       0.493000
     49 H1G         -5.0300     0.5950     1.4690 h2         1 GPD       0.072700
     50 H5           1.4610    -3.3710     0.6850 h1         1 GPD       0.009700
     51 H5'A         0.9380    -4.6480    -0.4130 h1         1 GPD       0.009700
     52 H4           1.1950    -3.2010    -2.3540 h1         1 GPD       0.090700
     53 H3           3.3150    -4.3010    -0.9990 h1         1 GPD       0.043700
     54 HO3          4.6010    -3.0610    -2.6660 ho         1 GPD       0.499000
     55 H2           3.5060    -2.4370     0.5290 h1         1 GPD       0.076700
     56 HO2          5.5990    -2.5420    -0.1550 ho         1 GPD       0.495000
     57 H1           3.3900    -0.4910    -1.8000 h2         1 GPD       0.087700
     58 H8           1.1570    -0.7830     1.2980 h5         1 GPD       0.145100
     59 HN1          5.1360     4.2220     1.0310 hn         1 GPD       0.296500
     60 HN2          6.3340     2.6630    -1.8210 hn         1 GPD       0.474500
     61 HN2A         6.5750     3.9320    -0.7160 hn         1 GPD       0.474500
@<TRIPOS>BOND
     1     1     2 1   
     2     1    38 1   
     3     1    39 1   
     4     2     3 1   
     5     2     6 1   
     6     2    40 1   
     7     3     4 1   
     8     3     5 1   
     9     3    41 1   
    10     4    42 1   
    11     4    43 1   
    12     4    44 1   
    13     5     9 1   
    14     6     7 1   
    15     6    45 1   
    16     6    46 1   
    17     7     8 1   
    18     7     9 1   
    19     7    47 1   
    20     8    48 1   
    21     9    10 1   
    22     9    49 1   
    23    10    11 1   
    24    11    12 1   
    25    11    13 1   
    26    11    14 1   
    27    14    15 1   
    28    15    16 1   
    29    15    17 1   
    30    15    18 1   
    31    18    19 1   
    32    19    20 1   
    33    19    50 1   
    34    19    51 1   
    35    20    21 1   
    36    20    22 1   
    37    20    52 1   
    38    21    26 1   
    39    22    23 1   
    40    22    24 1   
    41    22    53 1   
    42    23    54 1   
    43    24    25 1   
    44    24    26 1   
    45    24    55 1   
    46    25    56 1   
    47    26    27 1   
    48    26    57 1   
    49    27    28 1   
    50    27    30 1   
    51    28    29 2   
    52    28    58 1   
    53    29    31 1   
    54    30    31 2   
    55    30    34 1   
    56    31    32 1   
    57    32    33 2   
    58    32    36 1   
    59    34    35 2   
    60    35    36 1   
    61    35    37 1   
    62    36    59 1   
    63    37    60 1   
    64    37    61 1   
@<TRIPOS>SUBSTRUCTURE
     1 GPD         1 TEMP              0 ****  ****    0 ROOT
