@<TRIPOS>MOLECULE
GPE
   26    25     1     0     0
SMALL
bcc


@<TRIPOS>ATOM
      1 P           -1.0570     0.5930     0.8970 p5         1 GPE       1.395800
      2 O11         -0.2240    -0.0370    -0.3710 os         1 GPE      -0.548200
      3 O12         -0.1420    -0.1950     2.0050 os         1 GPE      -0.569200
      4 O14         -2.4580     0.0620     0.9140 o          1 GPE      -0.832000
      5 O13         -0.8280     2.0720     0.9780 o          1 GPE      -0.832000
      6 C1          -0.5700     0.4210    -1.6610 c3         1 GPE       0.169400
      7 C2           0.2120    -0.3690    -2.6980 c3         1 GPE       0.138100
      8 C3          -0.2090     0.0680    -4.0920 c3         1 GPE       0.094400
      9 O31          0.4310    -0.7480    -5.0430 oh         1 GPE      -0.587800
     10 O21          1.6040    -0.2790    -2.5050 oh         1 GPE      -0.569800
     11 C11         -0.5910    -0.1920     3.3520 c3         1 GPE       0.197400
     12 C12          0.5360    -0.6690     4.2410 c3         1 GPE       0.147800
     13 N            1.6470     0.2690     4.2320 n8         1 GPE      -0.882800
     14 H11         -1.6420     0.2910    -1.8510 h1         1 GPE       0.019700
     15 H12         -0.3510     1.4920    -1.7680 h1         1 GPE       0.019700
     16 H2          -0.0350    -1.4300    -2.5800 h1         1 GPE       0.088700
     17 H31         -1.3020    -0.0020    -4.1670 h1         1 GPE       0.015200
     18 H32          0.0490     1.1290    -4.2280 h1         1 GPE       0.015200
     19 HO1          0.1650    -0.4510    -5.9170 ho         1 GPE       0.385000
     20 HO2          1.8680     0.6420    -2.6030 ho         1 GPE       0.388000
     21 H111        -1.4540    -0.8540     3.4710 h1         1 GPE       0.026700
     22 H112        -0.8950     0.8140     3.6650 h1         1 GPE       0.026700
     23 H121         0.8100    -1.6920     3.9470 h1         1 GPE       0.012700
     24 H122         0.1410    -0.7370     5.2570 h1         1 GPE       0.012700
     25 HN1          2.3850    -0.0810     4.8300 hn         1 GPE       0.333800
     26 HN2          2.0440     0.3060     3.3020 hn         1 GPE       0.333800
@<TRIPOS>BOND
     1     1     2 1   
     2     1     3 1   
     3     1     4 1   
     4     1     5 1   
     5     2     6 1   
     6     3    11 1   
     7     6     7 1   
     8     6    14 1   
     9     6    15 1   
    10     7     8 1   
    11     7    10 1   
    12     7    16 1   
    13     8     9 1   
    14     8    17 1   
    15     8    18 1   
    16     9    19 1   
    17    10    20 1   
    18    11    12 1   
    19    11    21 1   
    20    11    22 1   
    21    12    13 1   
    22    12    23 1   
    23    12    24 1   
    24    13    25 1   
    25    13    26 1   
@<TRIPOS>SUBSTRUCTURE
     1 GPE         1 TEMP              0 ****  ****    0 ROOT
