@<TRIPOS>MOLECULE
GPE
   26    25     1     0     0
SMALL
No Charge or Current Charge


@<TRIPOS>ATOM
      1 P           -1.4320     1.5960     1.0340 p5         1 GPE       1.395800
      2 O11         -0.0390     1.6730     0.2190 os         1 GPE      -0.571400
      3 O12         -0.9490     0.7650     2.3300 os         1 GPE      -0.592400
      4 O14         -2.5010     0.8580     0.2990 o          1 GPE      -0.832000
      5 O13         -1.8850     2.9650     1.4200 o          1 GPE      -0.832000
      6 C1           0.0430     1.3690    -1.1910 c3         1 GPE       0.192600
      7 C2          -0.0780    -0.1600    -1.4910 c3         1 GPE       0.161300
      8 C3          -0.1970    -0.4260    -3.0150 c3         1 GPE       0.117600
      9 O31         -0.2160    -1.8400    -3.2750 oh         1 GPE      -0.650000
     10 O21          1.0710    -0.8800    -1.0070 oh         1 GPE      -0.632000
     11 C11         -0.5440    -0.6120     2.2260 c3         1 GPE       0.220600
     12 C12          1.0120    -0.6950     2.3030 c3         1 GPE       0.147800
     13 N            1.5690    -0.2390     3.6020 n8         1 GPE      -0.993200
     14 H11         -0.7550     1.8980    -1.7290 h1         1 GPE       0.019700
     15 H12          0.9960     1.7360    -1.5940 h1         1 GPE       0.019700
     16 H2          -0.9920    -0.5530    -1.0300 h1         1 GPE       0.088700
     17 H31         -1.1190     0.0400    -3.3880 h1         1 GPE       0.015200
     18 H32          0.6490     0.0440    -3.5350 h1         1 GPE       0.015200
     19 HO1         -0.3500    -1.9540    -4.2430 ho         1 GPE       0.424000
     20 HO2          1.1080    -1.6860    -1.5700 ho         1 GPE       0.427000
     21 H111        -0.8790    -1.0570     1.2800 h1         1 GPE       0.026700
     22 H112        -0.9820    -1.2010     3.0420 h1         1 GPE       0.026700
     23 H121         1.4520    -0.0730     1.5130 h1         1 GPE       0.012700
     24 H122         1.3310    -1.7320     2.1360 h1         1 GPE       0.012700
     25 HN1          2.5860    -0.1320     3.5070 hn         1 GPE       0.389000
     26 HN2          1.2360     0.7190     3.7630 hn         1 GPE       0.389000
@<TRIPOS>BOND
     1     1     2 1   
     2     1     3 1   
     3     1     4 1   
     4     1     5 1   
     5     2     6 1   
     6     3    11 1   
     7     6     7 1   
     8     6    14 1   
     9     6    15 1   
    10     7     8 1   
    11     7    10 1   
    12     7    16 1   
    13     8     9 1   
    14     8    17 1   
    15     8    18 1   
    16     9    19 1   
    17    10    20 1   
    18    11    12 1   
    19    11    21 1   
    20    11    22 1   
    21    12    13 1   
    22    12    23 1   
    23    12    24 1   
    24    13    25 1   
    25    13    26 1   
@<TRIPOS>SUBSTRUCTURE
     1 GPE         1 TEMP              0 ****  ****    0 ROOT
