@<TRIPOS>MOLECULE
GPF
   15    14     1     0     0
SMALL
bcc


@<TRIPOS>ATOM
      1 C1           0.6600     0.7330     0.9970 c3         1 GPF       0.009600
      2 C2          -1.4460    -0.2570     0.2780 c3         1 GPF       0.050800
      3 C3          -2.9480     0.0460     0.1420 c          1 GPF       0.912600
      4 O1           1.4080    -1.6070    -0.2190 o          1 GPF      -0.954167
      5 O2           2.1390     0.6130    -1.2860 o          1 GPF      -0.954167
      6 O3           3.1720    -0.1490     0.9400 o          1 GPF      -0.954167
      7 O4          -3.3430     1.1850     0.4670 o          1 GPF      -0.902800
      8 P1           1.9460    -0.1860     0.0100 p5         1 GPF       1.170700
      9 O5          -3.6650    -0.9000    -0.2460 o          1 GPF      -0.902800
     10 N1          -0.6310     0.9310     0.3580 n7         1 GPF      -0.755200
     11 H1           0.5530     0.2280     1.9780 h1         1 GPF      -0.032300
     12 H1A          1.0700     1.7240     1.2200 h1         1 GPF      -0.032300
     13 H2          -1.3380    -0.8980     1.1750 h1         1 GPF       0.025700
     14 H2A         -1.1230    -0.8870    -0.5520 h1         1 GPF       0.025700
     15 HN1         -1.1660     1.6130     0.8810 hn         1 GPF       0.292800
@<TRIPOS>BOND
     1     1     8 1   
     2     1    10 1   
     3     1    11 1   
     4     1    12 1   
     5     2     3 1   
     6     2    10 1   
     7     2    13 1   
     8     2    14 1   
     9     3     7 1   
    10     3     9 1   
    11     4     8 1   
    12     5     8 1   
    13     6     8 1   
    14    10    15 1   
@<TRIPOS>SUBSTRUCTURE
     1 GPF         1 TEMP              0 ****  ****    0 ROOT
