@<TRIPOS>MOLECULE
GPF
   15    14     1     0     0
SMALL
No Charge or Current Charge


@<TRIPOS>ATOM
      1 C1           0.7220     0.8130     0.9480 c3         1 GPF      -0.148200
      2 C2          -1.5470    -0.2220     0.4000 c3         1 GPF       0.050800
      3 C3          -3.0650     0.0140     0.0320 c          1 GPF       0.702000
      4 O1           1.6510    -1.7060     0.1130 o          1 GPF      -0.954167
      5 O2           2.0720     0.1460    -1.4270 o          1 GPF      -0.954167
      6 O3           3.3590    -0.0490     0.6340 o          1 GPF      -0.954167
      7 O4          -3.7940     0.5510     0.8580 o          1 GPF      -0.797500
      8 P1           2.0180    -0.2610     0.0110 p5         1 GPF       1.328500
      9 O5          -3.4690    -0.3400    -1.0690 o          1 GPF      -0.797500
     10 N1          -0.6990     1.0190     0.4860 n7         1 GPF      -0.810400
     11 H1           0.6880     0.4140     1.9700 h1         1 GPF      -0.032300
     12 H1A          1.1820     1.8060     1.0310 h1         1 GPF      -0.032300
     13 H2          -1.5340    -0.7480     1.3650 h1         1 GPF       0.025700
     14 H2A         -1.1280    -0.9130    -0.3440 h1         1 GPF       0.025700
     15 HN1         -1.1670     1.6630     1.1350 hn         1 GPF       0.348000
@<TRIPOS>BOND
     1     1     8 1   
     2     1    10 1   
     3     1    11 1   
     4     1    12 1   
     5     2     3 1   
     6     2    10 1   
     7     2    13 1   
     8     2    14 1   
     9     3     7 1   
    10     3     9 1   
    11     4     8 1   
    12     5     8 1   
    13     6     8 1   
    14    10    15 1   
@<TRIPOS>SUBSTRUCTURE
     1 GPF         1 TEMP              0 ****  ****    0 ROOT
