@<TRIPOS>MOLECULE
GPG
   67    72     1     0     0
SMALL
abcg2


@<TRIPOS>ATOM
      1 N9A         17.9990    35.5840    20.3560 na         1 GPG      -0.177500
      2 C8A         17.3560    34.7590    19.4500 cc         1 GPG       0.437400
      3 N7A         16.1760    35.1980    19.1050 nd         1 GPG      -0.624000
      4 C5A         16.0140    36.3720    19.8230 cd         1 GPG       0.077500
      5 C6A         14.9210    37.2860    19.8720 c          1 GPG       0.520500
      6 O6A         13.8450    37.2440    19.2760 o          1 GPG      -0.562000
      7 N1A         15.1960    38.3510    20.7510 ns         1 GPG      -0.461400
      8 C2A         16.3470    38.5240    21.4750 cd         1 GPG       0.714800
      9 N2A         16.4190    39.5900    22.2940 nv         1 GPG      -1.030200
     10 N3A         17.3530    37.6710    21.4220 nc         1 GPG      -0.690100
     11 C4A         17.1370    36.6280    20.6040 cc         1 GPG       0.166400
     12 O5D         18.3180    36.2910    24.6930 oh         1 GPG      -0.704000
     13 C5D         19.4500    35.4280    24.6110 c3         1 GPG       0.159600
     14 C4D         19.9910    35.4100    23.2030 c5         1 GPG       0.144300
     15 O4D         19.0360    34.8120    22.3110 os         1 GPG      -0.462000
     16 C3D         20.2650    36.7740    22.5660 c5         1 GPG       0.122300
     17 O3D         21.4710    37.3890    22.9850 oh         1 GPG      -0.703000
     18 C2D         20.2850    36.4330    21.0770 c5         1 GPG       0.210300
     19 O2D         21.5760    35.9460    20.7290 os         1 GPG      -0.587400
     20 C1D         19.2670    35.2730    20.9810 c5         1 GPG       0.290300
     21 P           22.1240    36.1260    19.2010 p5         1 GPG       1.386800
     22 O1P         21.0660    35.7450    18.2220 o          1 GPG      -0.807000
     23 O2P         23.4700    35.4840    19.1920 o          1 GPG      -0.807000
     24 O5E         22.2620    37.7430    19.0850 os         1 GPG      -0.587400
     25 C5E         23.1840    38.4200    19.9400 c3         1 GPG       0.204600
     26 C4E         23.3060    39.8560    19.4770 c5         1 GPG       0.127300
     27 O4E         22.0210    40.5250    19.5480 os         1 GPG      -0.434000
     28 C3E         24.2560    40.6740    20.3510 c5         1 GPG       0.102300
     29 O3E         24.9710    41.6830    19.6400 oh         1 GPG      -0.727000
     30 C2E         23.3010    41.3050    21.3750 c5         1 GPG       0.095300
     31 O2E         23.7990    42.4600    22.0030 oh         1 GPG      -0.694000
     32 C1E         22.0460    41.5550    20.5240 c5         1 GPG       0.266300
     33 N9B         20.8060    41.5480    21.2650 na         1 GPG      -0.173500
     34 C8B         20.2970    40.5180    22.0340 cc         1 GPG       0.456400
     35 N7B         19.1200    40.8010    22.5280 nd         1 GPG      -0.647000
     36 C5B         18.8260    42.0740    22.0640 cd         1 GPG       0.079500
     37 C6B         17.6670    42.8820    22.2370 c          1 GPG       0.520500
     38 O6B         16.6380    42.6360    22.8650 o          1 GPG      -0.555000
     39 N1B         17.8030    44.1060    21.5540 ns         1 GPG      -0.455400
     40 C2B         18.8850    44.4950    20.8070 cd         1 GPG       0.727800
     41 N2B         18.8530    45.7260    20.2630 nv         1 GPG      -1.050200
     42 N3B         19.9460    43.7290    20.6360 nc         1 GPG      -0.694100
     43 C4B         19.8640    42.5490    21.2730 cc         1 GPG       0.164400
     44 H8A         17.8300    33.8580    19.0920 h5         1 GPG       0.064100
     45 H1A         14.4600    39.0400    20.8410 hn         1 GPG       0.310500
     46 H21A        15.7860    40.3640    22.1620 hn         1 GPG       0.506000
     47 H22A        17.3570    39.8510    22.5980 hn         1 GPG       0.506000
     48 HO5A        17.9960    36.2800    25.6020 ho         1 GPG       0.488000
     49 H51A        19.1840    34.4070    24.9040 h1         1 GPG       0.021700
     50 H52A        20.2530    35.7720    25.2720 h1         1 GPG       0.021700
     51 H4D         20.9180    34.8230    23.2090 h1         1 GPG       0.072700
     52 H3D         19.4100    37.4230    22.7440 h1         1 GPG       0.088700
     53 HO3A        21.3060    37.8280    23.8290 ho         1 GPG       0.487000
     54 H2D         20.0060    37.2790    20.4510 h1         1 GPG       0.084700
     55 H1D         19.7070    34.4780    20.3790 h2         1 GPG       0.104700
     56 H51B        24.1670    37.9450    19.8810 h1         1 GPG       0.043700
     57 H52B        22.8310    38.3710    20.9730 h1         1 GPG       0.043700
     58 H4E         23.6270    39.8730    18.4340 h1         1 GPG       0.092700
     59 H3E         25.0110    40.0560    20.8330 h1         1 GPG       0.109700
     60 HO3B        24.4150    42.0620    18.9460 ho         1 GPG       0.509000
     61 H2E         23.0770    40.5780    22.1570 h1         1 GPG       0.099700
     62 HO2B        24.3290    42.9330    21.3430 ho         1 GPG       0.513000
     63 H1E         22.1040    42.5370    20.0500 h2         1 GPG       0.083700
     64 H8B         20.8340    39.5930    22.1720 h5         1 GPG       0.088100
     65 H1B         17.0130    44.7340    21.6390 hn         1 GPG       0.319500
     66 H21B        17.9930    46.2470    20.2120 hn         1 GPG       0.500500
     67 H22B        19.5730    45.9550    19.5980 hn         1 GPG       0.500500
@<TRIPOS>BOND
     1     1     2 1   
     2     1    11 1   
     3     1    20 1   
     4     2     3 2   
     5     2    44 1   
     6     3     4 1   
     7     4     5 1   
     8     4    11 2   
     9     5     6 2   
    10     5     7 1   
    11     7     8 1   
    12     7    45 1   
    13     8     9 1   
    14     8    10 2   
    15     9    46 1   
    16     9    47 1   
    17    10    11 1   
    18    12    13 1   
    19    12    48 1   
    20    13    14 1   
    21    13    49 1   
    22    13    50 1   
    23    14    15 1   
    24    14    16 1   
    25    14    51 1   
    26    15    20 1   
    27    16    17 1   
    28    16    18 1   
    29    16    52 1   
    30    17    53 1   
    31    18    19 1   
    32    18    20 1   
    33    18    54 1   
    34    19    21 1   
    35    20    55 1   
    36    21    22 1   
    37    21    23 1   
    38    21    24 1   
    39    24    25 1   
    40    25    26 1   
    41    25    56 1   
    42    25    57 1   
    43    26    27 1   
    44    26    28 1   
    45    26    58 1   
    46    27    32 1   
    47    28    29 1   
    48    28    30 1   
    49    28    59 1   
    50    29    60 1   
    51    30    31 1   
    52    30    32 1   
    53    30    61 1   
    54    31    62 1   
    55    32    33 1   
    56    32    63 1   
    57    33    34 1   
    58    33    43 1   
    59    34    35 2   
    60    34    64 1   
    61    35    36 1   
    62    36    37 1   
    63    36    43 2   
    64    37    38 2   
    65    37    39 1   
    66    39    40 1   
    67    39    65 1   
    68    40    41 1   
    69    40    42 2   
    70    41    66 1   
    71    41    67 1   
    72    42    43 1   
@<TRIPOS>SUBSTRUCTURE
     1 GPG         1 TEMP              0 ****  ****    0 ROOT
