@<TRIPOS>MOLECULE
GPG
   67    72     1     0     0
SMALL
No Charge or Current Charge


@<TRIPOS>ATOM
      1 N9A         17.7740    36.1820    20.4640 na         1 GPG      -0.177500
      2 C8A         17.1080    35.8160    19.3120 cc         1 GPG       0.437400
      3 N7A         16.0250    36.5610    19.1070 nd         1 GPG      -0.624000
      4 C5A         16.0030    37.4630    20.1630 cd         1 GPG       0.077500
      5 C6A         15.0540    38.5730    20.4730 c          1 GPG       0.520500
      6 O6A         14.0690    38.8780    19.8150 o          1 GPG      -0.562000
      7 N1A         15.4090    39.2520    21.5990 ns         1 GPG      -0.461400
      8 C2A         16.4820    38.9380    22.3470 cd         1 GPG       0.714800
      9 N2A         16.7530    39.7390    23.3530 nv         1 GPG      -1.030200
     10 N3A         17.3420    37.9710    22.1410 nc         1 GPG      -0.690100
     11 C4A         17.0690    37.2350    21.0040 cc         1 GPG       0.166400
     12 O5D         18.4550    33.7420    24.6610 oh         1 GPG      -0.704000
     13 C5D         19.4990    33.2770    23.7840 c3         1 GPG       0.159600
     14 C4D         19.8470    34.3130    22.6750 c5         1 GPG       0.144300
     15 O4D         18.7720    34.4290    21.7150 os         1 GPG      -0.462000
     16 C3D         20.0300    35.7870    23.1310 c5         1 GPG       0.122300
     17 O3D         21.1830    36.0370    23.9650 oh         1 GPG      -0.703000
     18 C2D         20.0610    36.4830    21.7280 c5         1 GPG       0.210300
     19 O2D         21.3820    36.3390    21.1210 os         1 GPG      -0.587400
     20 C1D         19.0460    35.5970    20.8980 c5         1 GPG       0.290300
     21 P           21.6690    37.3800    19.9230 p5         1 GPG       1.386800
     22 O1P         20.4890    37.5130    19.0230 o          1 GPG      -0.807000
     23 O2P         22.9040    37.0120    19.1720 o          1 GPG      -0.807000
     24 O5E         21.8870    38.6850    20.8420 os         1 GPG      -0.587400
     25 C5E         23.2100    39.1250    21.1860 c3         1 GPG       0.204600
     26 C4E         23.7230    40.1320    20.1010 c5         1 GPG       0.127300
     27 O4E         22.6450    40.9090    19.5150 os         1 GPG      -0.434000
     28 C3E         24.6640    41.2530    20.6360 c5         1 GPG       0.102300
     29 O3E         25.3480    41.9430    19.5670 oh         1 GPG      -0.727000
     30 C2E         23.6190    42.1980    21.3170 c5         1 GPG       0.095300
     31 O2E         24.1500    43.5280    21.3670 oh         1 GPG      -0.694000
     32 C1E         22.3570    42.0410    20.3780 c5         1 GPG       0.266300
     33 N9B         21.0380    41.8860    21.0080 na         1 GPG      -0.173500
     34 C8B         20.7460    41.2560    22.2070 cc         1 GPG       0.456400
     35 N7B         19.4580    41.3640    22.5240 nd         1 GPG      -0.647000
     36 C5B         18.8930    42.0960    21.4870 cd         1 GPG       0.079500
     37 C6B         17.4900    42.5480    21.2670 c          1 GPG       0.520500
     38 O6B         16.5440    42.3190    22.0100 o          1 GPG      -0.555000
     39 N1B         17.3530    43.2660    20.1170 ns         1 GPG      -0.455400
     40 C2B         18.3800    43.5380    19.2860 cd         1 GPG       0.727800
     41 N2B         18.1110    44.2480    18.2060 nv         1 GPG      -1.050200
     42 N3B         19.6320    43.1740    19.4230 nc         1 GPG      -0.694100
     43 C4B         19.8560    42.4280    20.5640 cc         1 GPG       0.164400
     44 H8A         17.4570    35.0110    18.6760 h5         1 GPG       0.064100
     45 H1A         14.8210    40.0250    21.8660 hn         1 GPG       0.310500
     46 H21A        16.5770    40.7180    23.1380 hn         1 GPG       0.506000
     47 H22A        17.6900    39.5940    23.7030 hn         1 GPG       0.506000
     48 HO5A        18.2140    32.9870    25.2450 ho         1 GPG       0.488000
     49 H51A        19.2040    32.3350    23.3030 h1         1 GPG       0.021700
     50 H52A        20.4090    33.0750    24.3650 h1         1 GPG       0.021700
     51 H4D         20.7440    33.9540    22.1490 h1         1 GPG       0.072700
     52 H3D         19.1200    36.1130    23.6570 h1         1 GPG       0.088700
     53 HO3A        20.9940    35.6360    24.8440 ho         1 GPG       0.487000
     54 H2D         19.7830    37.5430    21.7860 h1         1 GPG       0.084700
     55 H1D         19.5430    35.2720    19.9750 h2         1 GPG       0.104700
     56 H51B        23.9100    38.2810    21.2540 h1         1 GPG       0.043700
     57 H52B        23.2040    39.6000    22.1730 h1         1 GPG       0.043700
     58 H4E         24.2060    39.5430    19.3090 h1         1 GPG       0.092700
     59 H3E         25.3850    40.8570    21.3680 h1         1 GPG       0.109700
     60 HO3B        24.8130    41.8050    18.7480 ho         1 GPG       0.509000
     61 H2E         23.3960    41.8470    22.3340 h1         1 GPG       0.099700
     62 HO2B        24.8780    43.5080    20.6940 ho         1 GPG       0.513000
     63 H1E         22.2670    42.9350    19.7500 h2         1 GPG       0.083700
     64 H8B         21.4970    40.7560    22.8050 h5         1 GPG       0.088100
     65 H1B         16.4340    43.6230    19.9150 hn         1 GPG       0.319500
     66 H21B        17.1810    44.1560    17.8180 hn         1 GPG       0.500500
     67 H22B        18.8630    44.2620    17.5290 hn         1 GPG       0.500500
@<TRIPOS>BOND
     1     1     2 1   
     2     1    11 1   
     3     1    20 1   
     4     2     3 2   
     5     2    44 1   
     6     3     4 1   
     7     4     5 1   
     8     4    11 2   
     9     5     6 2   
    10     5     7 1   
    11     7     8 1   
    12     7    45 1   
    13     8     9 1   
    14     8    10 2   
    15     9    46 1   
    16     9    47 1   
    17    10    11 1   
    18    12    13 1   
    19    12    48 1   
    20    13    14 1   
    21    13    49 1   
    22    13    50 1   
    23    14    15 1   
    24    14    16 1   
    25    14    51 1   
    26    15    20 1   
    27    16    17 1   
    28    16    18 1   
    29    16    52 1   
    30    17    53 1   
    31    18    19 1   
    32    18    20 1   
    33    18    54 1   
    34    19    21 1   
    35    20    55 1   
    36    21    22 1   
    37    21    23 1   
    38    21    24 1   
    39    24    25 1   
    40    25    26 1   
    41    25    56 1   
    42    25    57 1   
    43    26    27 1   
    44    26    28 1   
    45    26    58 1   
    46    27    32 1   
    47    28    29 1   
    48    28    30 1   
    49    28    59 1   
    50    29    60 1   
    51    30    31 1   
    52    30    32 1   
    53    30    61 1   
    54    31    62 1   
    55    32    33 1   
    56    32    63 1   
    57    33    34 1   
    58    33    43 1   
    59    34    35 2   
    60    34    64 1   
    61    35    36 1   
    62    36    37 1   
    63    36    43 2   
    64    37    38 2   
    65    37    39 1   
    66    39    40 1   
    67    39    65 1   
    68    40    41 1   
    69    40    42 2   
    70    41    66 1   
    71    41    67 1   
    72    42    43 1   
@<TRIPOS>SUBSTRUCTURE
     1 GPG         1 TEMP              0 ****  ****    0 ROOT
