@<TRIPOS>MOLECULE
GPI
   54    55     1     0     0
SMALL
No Charge or Current Charge


@<TRIPOS>ATOM
      1 C2          -4.5310     1.8740    -0.4470 c5         1 GPI       0.046700
      2 N6          -4.1980     3.3060    -0.2050 n          1 GPI      -0.394800
      3 C5          -2.8020     3.5130     0.2320 c5         1 GPI       0.106000
      4 C3          -3.2500     1.1530     0.0690 c5         1 GPI      -0.082400
      5 C4          -2.1440     2.1930    -0.2430 c5         1 GPI      -0.093400
      6 C1          -5.7670     1.3250     0.3270 c          1 GPI       0.591100
      7 O1          -6.2430     1.7920     1.3560 o          1 GPI      -0.478000
      8 O2          -6.2270     0.1830    -0.2840 os         1 GPI      -0.444100
      9 C14         -7.4030    -0.4680     0.2390 c3         1 GPI       0.164600
     10 C15         -8.6530     0.3340    -0.1960 c3         1 GPI      -0.101400
     11 C16         -9.9810    -0.3090     0.2620 c3         1 GPI      -0.024100
     12 N19        -10.4190     0.7380     3.9060 nb         1 GPI      -0.661000
     13 C20        -10.3180    -0.4590     4.5280 ca         1 GPI       0.332900
     14 C21        -10.1080    -1.6640     3.8360 ca         1 GPI      -0.162000
     15 C22         -9.9970    -1.6410     2.4360 ca         1 GPI      -0.075000
     16 C17        -10.0990    -0.4010     1.7790 ca         1 GPI      -0.134300
     17 C18        -10.3100     0.7580     2.5560 ca         1 GPI       0.343900
     18 C7          -5.1360     4.3540    -0.3660 c          1 GPI       0.516100
     19 O7          -6.2500     4.1180    -0.8320 o          1 GPI      -0.597100
     20 C8          -4.7090     5.8390     0.0460 c          1 GPI       0.519100
     21 O8          -3.9740     6.5010    -0.6880 o          1 GPI      -0.500100
     22 C9          -5.2480     6.3930     1.4100 c3         1 GPI      -0.135000
     23 C12         -4.6570     7.8070     1.7000 c3         1 GPI      -0.086100
     24 C13         -4.7990     5.4430     2.5560 c3         1 GPI      -0.086100
     25 C10         -6.8100     6.4550     1.3980 c3         1 GPI      -0.063400
     26 C11         -7.4380     7.3060     0.2690 c3         1 GPI      -0.091100
     27 H2          -4.6880     1.6930    -1.5180 h1         1 GPI       0.093700
     28 H51         -2.3320     4.3900    -0.2340 h1         1 GPI       0.060700
     29 H52         -2.7450     3.6190     1.3240 h1         1 GPI       0.060700
     30 H31         -3.0820     0.1900    -0.4270 hc         1 GPI       0.064700
     31 H32         -3.3040     0.9580     1.1470 hc         1 GPI       0.064700
     32 H41         -1.9240     2.2260    -1.3170 hc         1 GPI       0.061200
     33 H42         -1.2030     1.9830     0.2780 hc         1 GPI       0.061200
     34 H141        -7.3580    -0.5540     1.3330 h1         1 GPI       0.061700
     35 H142        -7.4790    -1.4840    -0.1700 h1         1 GPI       0.061700
     36 H151        -8.6590     0.4140    -1.2900 hc         1 GPI       0.064700
     37 H152        -8.6010     1.3570     0.1950 hc         1 GPI       0.064700
     38 H161       -10.0740    -1.3030    -0.1940 hc         1 GPI       0.050700
     39 H162       -10.8150     0.2830    -0.1360 hc         1 GPI       0.050700
     40 H21        -10.0340    -2.5990     4.3830 ha         1 GPI       0.122000
     41 H22         -9.8330    -2.5620     1.8800 ha         1 GPI       0.114000
     42 H18        -10.3940     1.7350     2.0830 h4         1 GPI       0.020100
     43 H121        -3.5650     7.7640     1.7910 hc         1 GPI       0.045200
     44 H122        -4.8940     8.5170     0.8980 hc         1 GPI       0.045200
     45 H123        -5.0540     8.2150     2.6380 hc         1 GPI       0.045200
     46 H131        -5.1990     4.4300     2.4210 hc         1 GPI       0.045200
     47 H132        -3.7060     5.3730     2.6030 hc         1 GPI       0.045200
     48 H133        -5.1510     5.8100     3.5290 hc         1 GPI       0.045200
     49 H101        -7.1620     6.8490     2.3600 hc         1 GPI       0.052700
     50 H102        -7.2180     5.4390     1.3290 hc         1 GPI       0.052700
     51 H111        -7.1290     6.9500    -0.7200 hc         1 GPI       0.038033
     52 H112        -8.5320     7.2460     0.3190 hc         1 GPI       0.038033
     53 H113        -7.1590     8.3620     0.3630 hc         1 GPI       0.038033
     54 H20        -10.4080    -0.4520     5.6140 h4         1 GPI       0.018100
@<TRIPOS>BOND
     1     1     2 1   
     2     1     4 1   
     3     1     6 1   
     4     1    27 1   
     5     2     3 1   
     6     2    18 1   
     7     3     5 1   
     8     3    28 1   
     9     3    29 1   
    10     4     5 1   
    11     4    30 1   
    12     4    31 1   
    13     5    32 1   
    14     5    33 1   
    15     6     7 2   
    16     6     8 1   
    17     8     9 1   
    18     9    10 1   
    19     9    34 1   
    20     9    35 1   
    21    10    11 1   
    22    10    36 1   
    23    10    37 1   
    24    11    16 1   
    25    11    38 1   
    26    11    39 1   
    27    12    13 ar  
    28    12    17 ar  
    29    13    14 ar  
    30    13    54 1   
    31    14    15 ar  
    32    14    40 1   
    33    15    16 ar  
    34    15    41 1   
    35    16    17 ar  
    36    17    42 1   
    37    18    19 2   
    38    18    20 1   
    39    20    21 2   
    40    20    22 1   
    41    22    23 1   
    42    22    24 1   
    43    22    25 1   
    44    23    43 1   
    45    23    44 1   
    46    23    45 1   
    47    24    46 1   
    48    24    47 1   
    49    24    48 1   
    50    25    26 1   
    51    25    49 1   
    52    25    50 1   
    53    26    51 1   
    54    26    52 1   
    55    26    53 1   
@<TRIPOS>SUBSTRUCTURE
     1 GPI         1 TEMP              0 ****  ****    0 ROOT
