@<TRIPOS>MOLECULE
GPI
   54    55     1     0     0
SMALL
abcg2


@<TRIPOS>ATOM
      1 C2          -4.4510     1.8290    -0.4770 c5         1 GPI       0.046700
      2 N6          -4.2050     3.2090    -0.0550 n          1 GPI      -0.394800
      3 C5          -2.8530     3.3950     0.4970 c5         1 GPI       0.106000
      4 C3          -3.1600     1.0890    -0.0730 c5         1 GPI      -0.082400
      5 C4          -2.0990     2.1950    -0.0700 c5         1 GPI      -0.093400
      6 C1          -5.6720     1.2510     0.2180 c          1 GPI       0.591100
      7 O1          -5.9740     1.4830     1.3650 o          1 GPI      -0.478000
      8 O2          -6.3240     0.4110    -0.5870 os         1 GPI      -0.444100
      9 C14         -7.5050    -0.2430    -0.0500 c3         1 GPI       0.164600
     10 C15         -8.7290     0.6330    -0.2410 c3         1 GPI      -0.101400
     11 C16         -9.9930     0.0010     0.3630 c3         1 GPI      -0.024100
     12 N19        -10.0600     1.0090     4.0000 nb         1 GPI      -0.661000
     13 C20         -9.7880    -0.1540     4.6010 ca         1 GPI       0.332900
     14 C21         -9.5830    -1.3350     3.9010 ca         1 GPI      -0.162000
     15 C22         -9.6590    -1.3090     2.5140 ca         1 GPI      -0.075000
     16 C17         -9.9350    -0.1100     1.8640 ca         1 GPI      -0.134300
     17 C18        -10.1290     1.0160     2.6670 ca         1 GPI       0.343900
     18 C7          -5.1460     4.1390    -0.2320 c          1 GPI       0.516100
     19 O7          -6.2440     3.9070    -0.7440 o          1 GPI      -0.597100
     20 C8          -4.8270     5.5830     0.1770 c          1 GPI       0.519100
     21 O8          -4.1220     6.2360    -0.5630 o          1 GPI      -0.500100
     22 C9          -5.4870     6.1290     1.4340 c3         1 GPI      -0.135000
     23 C12         -4.8450     7.4660     1.8110 c3         1 GPI      -0.086100
     24 C13         -5.2980     5.1140     2.5780 c3         1 GPI      -0.086100
     25 C10         -7.0120     6.2950     1.1790 c3         1 GPI      -0.063400
     26 C11         -7.3960     7.1990     0.0120 c3         1 GPI      -0.091100
     27 H2          -4.6100     1.7940    -1.5550 h1         1 GPI       0.093700
     28 H51         -2.4400     4.3510     0.1870 h1         1 GPI       0.060700
     29 H52         -2.8860     3.3570     1.5880 h1         1 GPI       0.060700
     30 H31         -2.9390     0.2750    -0.7590 hc         1 GPI       0.064700
     31 H32         -3.2720     0.6790     0.9320 hc         1 GPI       0.064700
     32 H41         -1.7710     2.4090    -1.0890 hc         1 GPI       0.061200
     33 H42         -1.2270     1.9370     0.5290 hc         1 GPI       0.061200
     34 H141        -7.3290    -0.4720     0.9990 h1         1 GPI       0.061700
     35 H142        -7.5870    -1.1700    -0.6130 h1         1 GPI       0.061700
     36 H151        -8.8840     0.8020    -1.3080 hc         1 GPI       0.064700
     37 H152        -8.5510     1.6060     0.2220 hc         1 GPI       0.064700
     38 H161       -10.1500    -0.9910    -0.0690 hc         1 GPI       0.050700
     39 H162       -10.8500     0.6140     0.0760 hc         1 GPI       0.050700
     40 H21         -9.3690    -2.2530     4.4320 ha         1 GPI       0.122000
     41 H22         -9.5040    -2.2140     1.9380 ha         1 GPI       0.114000
     42 H18        -10.3550     1.9720     2.2020 h4         1 GPI       0.020100
     43 H121        -3.7860     7.3360     2.0380 hc         1 GPI       0.045200
     44 H122        -4.9280     8.1980     1.0100 hc         1 GPI       0.045200
     45 H123        -5.3400     7.8640     2.6980 hc         1 GPI       0.045200
     46 H131        -5.7380     4.1450     2.3360 hc         1 GPI       0.045200
     47 H132        -4.2420     4.9690     2.8090 hc         1 GPI       0.045200
     48 H133        -5.7920     5.4950     3.4730 hc         1 GPI       0.045200
     49 H101        -7.4290     6.6930     2.1080 hc         1 GPI       0.052700
     50 H102        -7.4490     5.3070     1.0330 hc         1 GPI       0.052700
     51 H111        -7.0130     6.8150    -0.9360 hc         1 GPI       0.038033
     52 H112        -8.4820     7.2580    -0.0710 hc         1 GPI       0.038033
     53 H113        -7.0190     8.2140     0.1410 hc         1 GPI       0.038033
     54 H20         -9.7350    -0.1390     5.6840 h4         1 GPI       0.018100
@<TRIPOS>BOND
     1     1     2 1   
     2     1     4 1   
     3     1     6 1   
     4     1    27 1   
     5     2     3 1   
     6     2    18 1   
     7     3     5 1   
     8     3    28 1   
     9     3    29 1   
    10     4     5 1   
    11     4    30 1   
    12     4    31 1   
    13     5    32 1   
    14     5    33 1   
    15     6     7 2   
    16     6     8 1   
    17     8     9 1   
    18     9    10 1   
    19     9    34 1   
    20     9    35 1   
    21    10    11 1   
    22    10    36 1   
    23    10    37 1   
    24    11    16 1   
    25    11    38 1   
    26    11    39 1   
    27    12    13 ar  
    28    12    17 ar  
    29    13    14 ar  
    30    13    54 1   
    31    14    15 ar  
    32    14    40 1   
    33    15    16 ar  
    34    15    41 1   
    35    16    17 ar  
    36    17    42 1   
    37    18    19 2   
    38    18    20 1   
    39    20    21 2   
    40    20    22 1   
    41    22    23 1   
    42    22    24 1   
    43    22    25 1   
    44    23    43 1   
    45    23    44 1   
    46    23    45 1   
    47    24    46 1   
    48    24    47 1   
    49    24    48 1   
    50    25    26 1   
    51    25    49 1   
    52    25    50 1   
    53    26    51 1   
    54    26    52 1   
    55    26    53 1   
@<TRIPOS>SUBSTRUCTURE
     1 GPI         1 TEMP              0 ****  ****    0 ROOT
