@<TRIPOS>MOLECULE
GPK
   33    34     1     0     0
SMALL
bcc


@<TRIPOS>ATOM
      1 C1          -1.9600    -0.0000    -1.1210 cc         1 GPK       0.018600
      2 F1          -4.1490    -0.1550    -1.9010 f          1 GPK      -0.137500
      3 C2          -3.2670    -0.1520    -0.8990 cd         1 GPK      -0.035700
      4 C3          -3.7910    -0.3220     0.4370 c          1 GPK       0.721700
      5 O3          -4.9600    -0.4690     0.7220 o          1 GPK      -0.573500
      6 N4          -2.7920    -0.3040     1.3890 ns         1 GPK      -0.604500
      7 C5          -1.4370    -0.1430     1.2140 c          1 GPK       0.839500
      8 O5          -0.6720    -0.1370     2.1510 o          1 GPK      -0.614500
      9 C7           0.3620     0.1930    -0.4300 c6         1 GPK       0.335500
     10 N1          -1.0430     0.0050    -0.1010 n          1 GPK      -0.357000
     11 C8           0.9370     1.4910     0.1320 c6         1 GPK       0.108100
     12 O2           0.1700     2.5310    -0.4140 oh         1 GPK      -0.593800
     13 C9           2.4030     1.5670    -0.2720 c6         1 GPK       0.113100
     14 O1           2.9410     2.7220     0.3210 oh         1 GPK      -0.597800
     15 C4           3.1390     0.3040     0.1620 c6         1 GPK       0.078100
     16 O4           4.4590     0.4010    -0.3190 oh         1 GPK      -0.597800
     17 C10          2.4240    -0.9270    -0.4080 c6         1 GPK       0.127100
     18 O7           1.0660    -0.9260    -0.0000 os         1 GPK      -0.385600
     19 C6           3.0400    -2.2200     0.0770 c3         1 GPK       0.147400
     20 O6           2.4090    -3.2990    -0.5670 oh         1 GPK      -0.581800
     21 H1          -1.5700     0.1220    -2.1220 h4         1 GPK       0.174000
     22 HN4         -3.0870    -0.4190     2.3520 hn         1 GPK       0.346500
     23 H7           0.3970     0.2680    -1.5260 h2         1 GPK       0.056700
     24 H2           0.8820     1.4810     1.2260 h1         1 GPK       0.086700
     25 HO2          0.4700     3.3640    -0.0370 ho         1 GPK       0.432000
     26 H3           2.4570     1.6330    -1.3710 h1         1 GPK       0.052700
     27 HO3          3.8430     2.8330     0.0040 ho         1 GPK       0.426000
     28 H4           3.1170     0.2440     1.2600 h1         1 GPK       0.066700
     29 HO4          5.0520    -0.0490     0.2890 ho         1 GPK       0.416000
     30 H5           2.4860    -0.8910    -1.5080 h1         1 GPK       0.063700
     31 H6           4.1130    -2.1910    -0.1420 h1         1 GPK       0.030200
     32 H6'A         2.9350    -2.2750     1.1700 h1         1 GPK       0.030200
     33 HO6          2.8480    -4.1080    -0.2910 ho         1 GPK       0.409000
@<TRIPOS>BOND
     1     1     3 2   
     2     1    10 1   
     3     1    21 1   
     4     2     3 1   
     5     3     4 1   
     6     4     5 2   
     7     4     6 1   
     8     6     7 1   
     9     6    22 1   
    10     7     8 2   
    11     7    10 1   
    12     9    10 1   
    13     9    11 1   
    14     9    18 1   
    15     9    23 1   
    16    11    12 1   
    17    11    13 1   
    18    11    24 1   
    19    12    25 1   
    20    13    14 1   
    21    13    15 1   
    22    13    26 1   
    23    14    27 1   
    24    15    16 1   
    25    15    17 1   
    26    15    28 1   
    27    16    29 1   
    28    17    18 1   
    29    17    19 1   
    30    17    30 1   
    31    19    20 1   
    32    19    31 1   
    33    19    32 1   
    34    20    33 1   
@<TRIPOS>SUBSTRUCTURE
     1 GPK         1 TEMP              0 ****  ****    0 ROOT
