@<TRIPOS>MOLECULE
GPK
   33    34     1     0     0
SMALL
No Charge or Current Charge


@<TRIPOS>ATOM
      1 C1          -2.1030     0.1700    -1.1550 cc         1 GPK      -0.031400
      2 F1          -4.3780     0.0640    -1.8170 f          1 GPK      -0.137500
      3 C2          -3.4290    -0.0550    -0.8660 cd         1 GPK      -0.035700
      4 C3          -3.8530    -0.4380     0.5030 c          1 GPK       0.579200
      5 O3          -5.0050    -0.6610     0.8430 o          1 GPK      -0.498000
      6 N4          -2.8190    -0.5200     1.3880 ns         1 GPK      -0.470500
      7 C5          -1.4920    -0.3040     1.1680 c          1 GPK       0.630000
      8 O5          -0.7060    -0.3840     2.0980 o          1 GPK      -0.539000
      9 C7           0.3070     0.2230    -0.5080 c6         1 GPK       0.358700
     10 N1          -1.1250     0.0380    -0.1570 n          1 GPK      -0.290000
     11 C8           0.9000     1.5640     0.0400 c6         1 GPK       0.131300
     12 O2           0.2170     2.7320    -0.4730 oh         1 GPK      -0.716000
     13 C9           2.4080     1.6340    -0.3300 c6         1 GPK       0.136300
     14 O1           3.0080     2.8220     0.2140 oh         1 GPK      -0.660000
     15 C4           3.1610     0.3670     0.1740 c6         1 GPK       0.101300
     16 O4           4.5530     0.4520    -0.2090 oh         1 GPK      -0.720000
     17 C10          2.4620    -0.9050    -0.4110 c6         1 GPK       0.150300
     18 O7           1.0620    -0.9120    -0.0300 os         1 GPK      -0.432000
     19 C6           3.1050    -2.2420     0.0870 c3         1 GPK       0.170600
     20 O6           2.4300    -3.4160    -0.4070 oh         1 GPK      -0.704000
     21 H1          -1.7150     0.4550    -2.1280 h4         1 GPK       0.224000
     22 HN4         -3.0690    -0.7660     2.3330 hn         1 GPK       0.346500
     23 H7           0.3800     0.2430    -1.6050 h2         1 GPK       0.056700
     24 H2           0.8240     1.5410     1.1380 h1         1 GPK       0.086700
     25 HO2          0.8420     3.4820    -0.3150 ho         1 GPK       0.531000
     26 H3           2.4880     1.6550    -1.4280 h1         1 GPK       0.052700
     27 HO3          3.9790     2.6600     0.1590 ho         1 GPK       0.465000
     28 H4           3.0730     0.3300     1.2720 h1         1 GPK       0.066700
     29 HO4          5.0780    -0.0800     0.4360 ho         1 GPK       0.515000
     30 H5           2.5290    -0.8850    -1.5090 h1         1 GPK       0.063700
     31 H6           4.1560    -2.2590    -0.2300 h1         1 GPK       0.030200
     32 H6'A         3.0950    -2.2380     1.1850 h1         1 GPK       0.030200
     33 HO6          2.8590    -4.1950     0.0180 ho         1 GPK       0.508000
@<TRIPOS>BOND
     1     1     3 2   
     2     1    10 1   
     3     1    21 1   
     4     2     3 1   
     5     3     4 1   
     6     4     5 2   
     7     4     6 1   
     8     6     7 1   
     9     6    22 1   
    10     7     8 2   
    11     7    10 1   
    12     9    10 1   
    13     9    11 1   
    14     9    18 1   
    15     9    23 1   
    16    11    12 1   
    17    11    13 1   
    18    11    24 1   
    19    12    25 1   
    20    13    14 1   
    21    13    15 1   
    22    13    26 1   
    23    14    27 1   
    24    15    16 1   
    25    15    17 1   
    26    15    28 1   
    27    16    29 1   
    28    17    18 1   
    29    17    19 1   
    30    17    30 1   
    31    19    20 1   
    32    19    31 1   
    33    19    32 1   
    34    20    33 1   
@<TRIPOS>SUBSTRUCTURE
     1 GPK         1 TEMP              0 ****  ****    0 ROOT
