@<TRIPOS>MOLECULE
GPM
   29    29     1     0     0
SMALL
bcc


@<TRIPOS>ATOM
      1 C1           0.0180     0.8090    -0.7340 c6         1 GPM       0.196100
      2 C2          -1.3420     1.5170    -0.6710 c6         1 GPM       0.110100
      3 C3          -2.2050     0.8850     0.4080 c6         1 GPM       0.105100
      4 C4          -2.3200    -0.6170     0.1810 c6         1 GPM       0.075100
      5 C5          -0.9450    -1.2640    -0.0580 c6         1 GPM       0.139100
      6 C6          -1.1450    -2.6800    -0.5600 c3         1 GPM       0.156400
      7 C7           0.9070     1.0320     0.4800 c3         1 GPM      -0.250600
      8 O2          -1.1430     2.8940    -0.4530 oh         1 GPM      -0.569800
      9 O3          -3.4740     1.5070     0.3670 oh         1 GPM      -0.636800
     10 O4          -2.9740    -1.1610     1.3130 oh         1 GPM      -0.614800
     11 O5          -0.2370    -0.5520    -1.0420 os         1 GPM      -0.374600
     12 O6           0.0850    -3.3490    -0.6760 oh         1 GPM      -0.500800
     13 P            2.6020     0.2570     0.3980 p5         1 GPM       1.138700
     14 O1P          2.4240    -1.2440     0.6450 o          1 GPM      -0.932167
     15 O2P          3.1250     0.6040    -1.0060 o          1 GPM      -0.932167
     16 O3P          3.3720     0.9670     1.5260 o          1 GPM      -0.932167
     17 H1           0.5600     1.1900    -1.6040 h1         1 GPM       0.104700
     18 H2          -1.8420     1.3550    -1.6400 h1         1 GPM       0.004700
     19 H3          -1.7350     1.0570     1.3870 h1         1 GPM       0.077700
     20 H4          -2.9290    -0.7640    -0.7240 h1         1 GPM       0.014700
     21 H5          -0.3800    -1.2910     0.8830 h1         1 GPM       0.120700
     22 H61         -1.8110    -3.2020     0.1400 h1         1 GPM      -0.024300
     23 H62         -1.6740    -2.6340    -1.5240 h1         1 GPM      -0.024300
     24 H71          1.0440     2.1140     0.5740 hc         1 GPM       0.022200
     25 H72          0.4180     0.7200     1.4090 hc         1 GPM       0.022200
     26 HO2         -2.0080     3.3140    -0.4110 ho         1 GPM       0.375000
     27 HO3         -3.9970     1.1670     1.0990 ho         1 GPM       0.393000
     28 HO4         -3.4810    -1.9310     1.0440 ho         1 GPM       0.383000
     29 HO6         -0.1000    -4.2350    -0.9980 ho         1 GPM       0.353000
@<TRIPOS>BOND
     1     1     2 1   
     2     1     7 1   
     3     1    11 1   
     4     1    17 1   
     5     2     3 1   
     6     2     8 1   
     7     2    18 1   
     8     3     4 1   
     9     3     9 1   
    10     3    19 1   
    11     4     5 1   
    12     4    10 1   
    13     4    20 1   
    14     5     6 1   
    15     5    11 1   
    16     5    21 1   
    17     6    12 1   
    18     6    22 1   
    19     6    23 1   
    20     7    13 1   
    21     7    24 1   
    22     7    25 1   
    23     8    26 1   
    24     9    27 1   
    25    10    28 1   
    26    12    29 1   
    27    13    14 1   
    28    13    15 1   
    29    13    16 1   
@<TRIPOS>SUBSTRUCTURE
     1 GPM         1 TEMP              0 ****  ****    0 ROOT
