@<TRIPOS>MOLECULE
GPM
   29    29     1     0     0
SMALL
No Charge or Current Charge


@<TRIPOS>ATOM
      1 C1           0.0840     0.7690    -0.7290 c6         1 GPM       0.219300
      2 C2          -1.2740     1.5560    -0.6880 c6         1 GPM       0.133300
      3 C3          -2.2050     0.9500     0.4000 c6         1 GPM       0.128300
      4 C4          -2.4400    -0.5610     0.1110 c6         1 GPM       0.098300
      5 C5          -1.0630    -1.3040     0.0120 c6         1 GPM       0.162300
      6 C6          -1.2460    -2.7950    -0.4340 c3         1 GPM       0.179600
      7 C7           0.9880     0.9400     0.5330 c3         1 GPM      -0.408400
      8 O2          -1.1130     2.9680    -0.4640 oh         1 GPM      -0.692000
      9 O3          -3.4670     1.6450     0.4400 oh         1 GPM      -0.699000
     10 O4          -3.2980    -1.1250     1.1280 oh         1 GPM      -0.737000
     11 O5          -0.1960    -0.6410    -0.9590 os         1 GPM      -0.421000
     12 O6          -0.0110    -3.5040    -0.6030 oh         1 GPM      -0.623000
     13 P            2.7540     0.5150     0.2930 p5         1 GPM       1.296500
     14 O1P          2.9410    -0.9510     0.4840 o          1 GPM      -0.932167
     15 O2P          3.1760     0.9280    -1.0750 o          1 GPM      -0.932167
     16 O3P          3.5440     1.2600     1.3140 o          1 GPM      -0.932167
     17 H1           0.6420     1.1470    -1.5980 h1         1 GPM       0.104700
     18 H2          -1.7630     1.4130    -1.6630 h1         1 GPM       0.004700
     19 H3          -1.7020     1.0350     1.3760 h1         1 GPM       0.077700
     20 H4          -2.9380    -0.6450    -0.8670 h1         1 GPM       0.014700
     21 H5          -0.5800    -1.3150     0.9980 h1         1 GPM       0.120700
     22 H61         -1.8580    -3.3130     0.3150 h1         1 GPM      -0.024300
     23 H62         -1.8060    -2.8100    -1.3780 h1         1 GPM      -0.024300
     24 H71          1.0090     1.9960     0.8220 hc         1 GPM       0.022200
     25 H72          0.6150     0.4020     1.4090 hc         1 GPM       0.022200
     26 HO2         -1.9870     3.2530    -0.1080 ho         1 GPM       0.474000
     27 HO3         -4.0810     1.0060     0.8680 ho         1 GPM       0.432000
     28 HO4         -3.6720    -1.9620     0.7670 ho         1 GPM       0.482000
     29 HO6         -0.2400    -4.3930    -0.9520 ho         1 GPM       0.452000
@<TRIPOS>BOND
     1     1     2 1   
     2     1     7 1   
     3     1    11 1   
     4     1    17 1   
     5     2     3 1   
     6     2     8 1   
     7     2    18 1   
     8     3     4 1   
     9     3     9 1   
    10     3    19 1   
    11     4     5 1   
    12     4    10 1   
    13     4    20 1   
    14     5     6 1   
    15     5    11 1   
    16     5    21 1   
    17     6    12 1   
    18     6    22 1   
    19     6    23 1   
    20     7    13 1   
    21     7    24 1   
    22     7    25 1   
    23     8    26 1   
    24     9    27 1   
    25    10    28 1   
    26    12    29 1   
    27    13    14 1   
    28    13    15 1   
    29    13    16 1   
@<TRIPOS>SUBSTRUCTURE
     1 GPM         1 TEMP              0 ****  ****    0 ROOT
