@<TRIPOS>MOLECULE
GPN
   37    38     1     0     0
SMALL
abcg2


@<TRIPOS>ATOM
      1 C8          -0.3350    -0.0320    -1.3350 c3         1 GPN      -0.006400
      2 C7          -1.1210     0.3710    -0.0860 c          1 GPN       0.598100
      3 O7          -0.7090     1.2680     0.6280 o          1 GPN      -0.519100
      4 C5          -3.0860     0.1210     1.2720 c3         1 GPN      -0.073000
      5 C           -3.9870     1.3250     0.9120 c          1 GPN       0.712000
      6 O1          -3.9780     1.7100    -0.2680 o          1 GPN      -0.704500
      7 OXT         -4.6520     1.7780     1.8630 o          1 GPN      -0.704500
      8 N4          -2.2480    -0.3150     0.1740 n          1 GPN      -0.368800
      9 C3          -2.8370    -1.2590    -0.7470 c3         1 GPN       0.094000
     10 C2          -2.5350    -2.6830    -0.3010 c3         1 GPN       0.059600
     11 N1          -3.2800    -3.6610    -1.1310 nz         1 GPN      -0.967000
     12 N9           1.0000     0.4840    -1.2670 na         1 GPN      -0.163500
     13 C1           1.5070     1.5870    -1.9000 cc         1 GPN       0.420400
     14 N7           2.7310     1.8490    -1.5570 nd         1 GPN      -0.590000
     15 C9           3.0450     0.8810    -0.6360 cd         1 GPN       0.102500
     16 C6           4.2410     0.6490     0.1020 c          1 GPN       0.523500
     17 O6           5.2920     1.2670     0.0750 o          1 GPN      -0.512000
     18 N5           4.0900    -0.4620     0.9440 ns         1 GPN      -0.457400
     19 C10          2.9720    -1.2370     1.0680 cd         1 GPN       0.737800
     20 N2           3.0420    -2.2760     1.9120 nv         1 GPN      -1.054200
     21 N3           1.8760    -1.0220     0.3830 nc         1 GPN      -0.721100
     22 C4           1.9730     0.0320    -0.4380 cc         1 GPN       0.141400
     23 H8'1        -0.2900    -1.1130    -1.4670 h1         1 GPN       0.060700
     24 H8'2        -0.8220     0.3770    -2.2220 h1         1 GPN       0.060700
     25 H5'1        -2.4680     0.3620     2.1370 h1         1 GPN       0.042200
     26 H5'2        -3.7150    -0.7200     1.5740 h1         1 GPN       0.042200
     27 H3'1        -3.9160    -1.0930    -0.7660 h1         1 GPN       0.070200
     28 H3'2        -2.4980    -1.0950    -1.7690 h1         1 GPN       0.070200
     29 H2'1        -1.4780    -2.9230    -0.3910 hx         1 GPN       0.107200
     30 H2'2        -2.8420    -2.8450     0.7290 hx         1 GPN       0.107200
     31 H1'1        -3.0610    -4.6190    -0.8610 hn         1 GPN       0.503667
     32 H1'2        -4.2890    -3.5510    -1.0370 hn         1 GPN       0.503667
     33 H1'3        -3.0580    -3.5790    -2.1240 hn         1 GPN       0.503667
     34 H8           0.9150     2.1410    -2.6130 h5         1 GPN       0.065100
     35 HN1          4.8980    -0.6930     1.5100 hn         1 GPN       0.321500
     36 HN21         3.7850    -2.3570     2.5830 hn         1 GPN       0.498500
     37 HN22         2.1890    -2.7680     2.1200 hn         1 GPN       0.498500
@<TRIPOS>BOND
     1     1     2 1   
     2     1    12 1   
     3     1    23 1   
     4     1    24 1   
     5     2     3 2   
     6     2     8 1   
     7     4     5 1   
     8     4     8 1   
     9     4    25 1   
    10     4    26 1   
    11     5     6 1   
    12     5     7 1   
    13     8     9 1   
    14     9    10 1   
    15     9    27 1   
    16     9    28 1   
    17    10    11 1   
    18    10    29 1   
    19    10    30 1   
    20    11    31 1   
    21    11    32 1   
    22    11    33 1   
    23    12    13 1   
    24    12    22 1   
    25    13    14 2   
    26    13    34 1   
    27    14    15 1   
    28    15    16 1   
    29    15    22 2   
    30    16    17 2   
    31    16    18 1   
    32    18    19 1   
    33    18    35 1   
    34    19    20 1   
    35    19    21 2   
    36    20    36 1   
    37    20    37 1   
    38    21    22 1   
@<TRIPOS>SUBSTRUCTURE
     1 GPN         1 TEMP              0 ****  ****    0 ROOT
