@<TRIPOS>MOLECULE
GPN
   37    38     1     0     0
SMALL
No Charge or Current Charge


@<TRIPOS>ATOM
      1 C8          -0.3430     0.0260    -1.2350 c3         1 GPN      -0.006400
      2 C7          -1.3130     0.5400    -0.1470 c          1 GPN       0.598100
      3 O7          -1.0530     1.5470     0.5020 o          1 GPN      -0.519100
      4 C5          -3.4470     0.2500     1.1800 c3         1 GPN      -0.073000
      5 C           -4.2280     1.5560     0.8830 c          1 GPN       0.712000
      6 O1          -4.7230     1.6990    -0.2270 o          1 GPN      -0.704500
      7 OXT         -4.3230     2.3860     1.7760 o          1 GPN      -0.704500
      8 N4          -2.5030    -0.1920     0.1070 n          1 GPN      -0.368800
      9 C3          -2.9580    -1.3020    -0.7660 c3         1 GPN       0.094000
     10 C2          -2.5710    -2.6860    -0.2040 c3         1 GPN       0.059600
     11 N1          -3.0510    -3.8280    -1.0790 nz         1 GPN      -0.967000
     12 N9           1.0290     0.5600    -1.1210 na         1 GPN      -0.163500
     13 C1           1.5140     1.7230    -1.6940 cc         1 GPN       0.420400
     14 N7           2.7910     1.9260    -1.3800 nd         1 GPN      -0.590000
     15 C9           3.1390     0.8550    -0.5630 cd         1 GPN       0.102500
     16 C6           4.4250     0.5150     0.1130 c          1 GPN       0.523500
     17 O6           5.4600     1.1650     0.0500 o          1 GPN      -0.512000
     18 N5           4.3380    -0.6390     0.8380 ns         1 GPN      -0.457400
     19 C10          3.2140    -1.3790     0.9230 cd         1 GPN       0.737800
     20 N2           3.2610    -2.4690     1.6630 nv         1 GPN      -1.054200
     21 N3           2.0580    -1.1380     0.3550 nc         1 GPN      -0.721100
     22 C4           2.0610     0.0180    -0.4000 cc         1 GPN       0.141400
     23 H8'1        -0.2930    -1.0670    -1.1700 h1         1 GPN       0.060700
     24 H8'2        -0.7580     0.2910    -2.2150 h1         1 GPN       0.060700
     25 H5'1        -2.8800     0.3910     2.1090 h1         1 GPN       0.042200
     26 H5'2        -4.1850    -0.5400     1.3670 h1         1 GPN       0.042200
     27 H3'1        -4.0510    -1.2520    -0.8550 h1         1 GPN       0.070200
     28 H3'2        -2.5580    -1.1860    -1.7800 h1         1 GPN       0.070200
     29 H2'1        -1.4810    -2.7410    -0.1080 hx         1 GPN       0.107200
     30 H2'2        -3.0040    -2.7930     0.7960 hx         1 GPN       0.107200
     31 H1'1        -2.7970    -4.7570    -0.7030 hn         1 GPN       0.503667
     32 H1'2        -4.0780    -3.8560    -1.1930 hn         1 GPN       0.503667
     33 H1'3        -2.6630    -3.8090    -2.0360 hn         1 GPN       0.503667
     34 H8           0.8980     2.3610    -2.3170 h5         1 GPN       0.065100
     35 HN1          5.1750    -0.9430     1.3060 hn         1 GPN       0.321500
     36 HN21         3.8950    -2.4570     2.4520 hn         1 GPN       0.498500
     37 HN22         2.3520    -2.8740     1.8450 hn         1 GPN       0.498500
@<TRIPOS>BOND
     1     1     2 1   
     2     1    12 1   
     3     1    23 1   
     4     1    24 1   
     5     2     3 2   
     6     2     8 1   
     7     4     5 1   
     8     4     8 1   
     9     4    25 1   
    10     4    26 1   
    11     5     6 1   
    12     5     7 1   
    13     8     9 1   
    14     9    10 1   
    15     9    27 1   
    16     9    28 1   
    17    10    11 1   
    18    10    29 1   
    19    10    30 1   
    20    11    31 1   
    21    11    32 1   
    22    11    33 1   
    23    12    13 1   
    24    12    22 1   
    25    13    14 2   
    26    13    34 1   
    27    14    15 1   
    28    15    16 1   
    29    15    22 2   
    30    16    17 2   
    31    16    18 1   
    32    18    19 1   
    33    18    35 1   
    34    19    20 1   
    35    19    21 2   
    36    20    36 1   
    37    20    37 1   
    38    21    22 1   
@<TRIPOS>SUBSTRUCTURE
     1 GPN         1 TEMP              0 ****  ****    0 ROOT
