@<TRIPOS>MOLECULE
GPQ
   33    34     1     0     0
SMALL
bcc


@<TRIPOS>ATOM
      1 N1           0.7710     0.2230     0.5680 n          1 GPQ      -0.359000
      2 CL1          3.4240    -1.1420    -2.0350 cl         1 GPQ      -0.056400
      3 C2           1.5150     0.6690     1.6430 c          1 GPQ       0.844500
      4 O2           1.0280     1.1500     2.6420 o          1 GPQ      -0.615500
      5 N3           2.8700     0.5210     1.4920 ns         1 GPQ      -0.601500
      6 C4           3.5660    -0.0110     0.4240 c          1 GPQ       0.741700
      7 O4           4.7750    -0.0830     0.4240 o          1 GPQ      -0.577500
      8 C5           2.6940    -0.4510    -0.6470 cc         1 GPQ      -0.188800
      9 C6           1.3640    -0.3200    -0.5360 cd         1 GPQ       0.071600
     10 C1          -0.6760     0.3580     0.5900 c6         1 GPQ       0.316500
     11 C7          -1.1490     1.3790    -0.4400 c6         1 GPQ       0.107100
     12 O1          -0.5760     2.6080    -0.1000 oh         1 GPQ      -0.577800
     13 C3          -2.6710     1.4050    -0.4090 c6         1 GPQ       0.075100
     14 O3          -3.1050     2.3090    -1.3980 oh         1 GPQ      -0.602800
     15 C8          -3.2260    -0.0010    -0.6420 c6         1 GPQ       0.088100
     16 O7          -4.6230    -0.0280    -0.4850 oh         1 GPQ      -0.591800
     17 C9          -2.6180    -0.9690     0.3750 c6         1 GPQ       0.157100
     18 O5          -1.2010    -0.9040     0.3190 os         1 GPQ      -0.408600
     19 C10         -3.0120    -2.4040     0.1000 c3         1 GPQ       0.149400
     20 O6          -2.4960    -3.2210     1.1230 oh         1 GPQ      -0.583800
     21 HN3          3.4260     0.8470     2.2740 hn         1 GPQ       0.347500
     22 H6           0.7030    -0.6520    -1.3240 h4         1 GPQ       0.173000
     23 H1          -0.9500     0.7030     1.5920 h2         1 GPQ       0.103700
     24 H2          -0.8290     1.0510    -1.4430 h1         1 GPQ       0.053700
     25 HO2         -0.9090     3.2740    -0.7120 ho         1 GPQ       0.427000
     26 H3          -2.9890     1.7400     0.5900 h1         1 GPQ       0.062700
     27 HO3         -3.9330     2.7090    -1.1180 ho         1 GPQ       0.419000
     28 H4          -2.9360    -0.3310    -1.6510 h1         1 GPQ       0.055700
     29 HO4         -5.0300     0.3090    -1.2880 ho         1 GPQ       0.417000
     30 H5          -2.9610    -0.6850     1.3830 h1         1 GPQ       0.072700
     31 H7          -4.1040    -2.4550     0.0500 h1         1 GPQ       0.036200
     32 H6'A        -2.6270    -2.6930    -0.8880 h1         1 GPQ       0.036200
     33 HO6         -2.7840    -4.1220     0.9560 ho         1 GPQ       0.409000
@<TRIPOS>BOND
     1     1     3 1   
     2     1     9 1   
     3     1    10 1   
     4     2     8 1   
     5     3     4 2   
     6     3     5 1   
     7     5     6 1   
     8     5    21 1   
     9     6     7 2   
    10     6     8 1   
    11     8     9 2   
    12     9    22 1   
    13    10    11 1   
    14    10    18 1   
    15    10    23 1   
    16    11    12 1   
    17    11    13 1   
    18    11    24 1   
    19    12    25 1   
    20    13    14 1   
    21    13    15 1   
    22    13    26 1   
    23    14    27 1   
    24    15    16 1   
    25    15    17 1   
    26    15    28 1   
    27    16    29 1   
    28    17    18 1   
    29    17    19 1   
    30    17    30 1   
    31    19    20 1   
    32    19    31 1   
    33    19    32 1   
    34    20    33 1   
@<TRIPOS>SUBSTRUCTURE
     1 GPQ         1 TEMP              0 ****  ****    0 ROOT
