@<TRIPOS>MOLECULE
GPQ
   33    34     1     0     0
SMALL
No Charge or Current Charge


@<TRIPOS>ATOM
      1 N1           0.8580     0.2100     0.5620 n          1 GPQ      -0.292000
      2 Cl1          3.5820    -1.3520    -1.9630 cl         1 GPQ      -0.132000
      3 C2           1.6490     0.7100     1.6130 c          1 GPQ       0.635000
      4 O2           1.1860     1.2630     2.5970 o          1 GPQ      -0.540000
      5 N3           2.9930     0.5410     1.4870 ns         1 GPQ      -0.467500
      6 C4           3.6780    -0.0530     0.4710 c          1 GPQ       0.599200
      7 O4           4.8960    -0.1340     0.4910 o          1 GPQ      -0.502000
      8 C5           2.8100    -0.5680    -0.6110 cc         1 GPQ      -0.113200
      9 C6           1.4430    -0.4250    -0.5380 cd         1 GPQ       0.021600
     10 C1          -0.6130     0.3900     0.6140 c6         1 GPQ       0.339700
     11 C7          -1.1120     1.4880    -0.3850 c6         1 GPQ       0.130300
     12 O1          -0.5870     2.7980    -0.0920 oh         1 GPQ      -0.700000
     13 C3          -2.6650     1.5380    -0.3500 c6         1 GPQ       0.098300
     14 O3          -3.1590     2.5090    -1.2900 oh         1 GPQ      -0.665000
     15 C8          -3.2650     0.1320    -0.6490 c6         1 GPQ       0.111300
     16 O7          -4.7060     0.1990    -0.5710 oh         1 GPQ      -0.714000
     17 C9          -2.6620    -0.9040     0.3590 c6         1 GPQ       0.180300
     18 O5          -1.2120    -0.8820     0.2760 os         1 GPQ      -0.455000
     19 C10         -3.1420    -2.3690     0.0890 c3         1 GPQ       0.172600
     20 O6          -2.5480    -3.3380     0.9780 oh         1 GPQ      -0.706000
     21 HN3          3.5530     0.9010     2.2430 hn         1 GPQ       0.347500
     22 H6           0.7490    -0.7820    -1.2940 h4         1 GPQ       0.223000
     23 H1          -0.9100     0.6700     1.6360 h2         1 GPQ       0.103700
     24 H2          -0.8040     1.1880    -1.3990 h1         1 GPQ       0.053700
     25 HO2         -1.2020     3.4200    -0.5530 ho         1 GPQ       0.526000
     26 H3          -2.9740     1.8230     0.6680 h1         1 GPQ       0.062700
     27 HO3         -4.1200     2.3080    -1.3840 ho         1 GPQ       0.458000
     28 H4          -2.9570    -0.1620    -1.6650 h1         1 GPQ       0.055700
     29 HO4         -5.0740    -0.4600    -1.2070 ho         1 GPQ       0.516000
     30 H5          -2.9630    -0.6330     1.3820 h1         1 GPQ       0.072700
     31 H7          -4.2360    -2.3970     0.1880 h1         1 GPQ       0.036200
     32 H6'A        -2.9020    -2.6190    -0.9540 h1         1 GPQ       0.036200
     33 HO6         -2.8520    -4.2270     0.6810 ho         1 GPQ       0.508000
@<TRIPOS>BOND
     1     1     3 1   
     2     1     9 1   
     3     1    10 1   
     4     2     8 1   
     5     3     4 2   
     6     3     5 1   
     7     5     6 1   
     8     5    21 1   
     9     6     7 2   
    10     6     8 1   
    11     8     9 2   
    12     9    22 1   
    13    10    11 1   
    14    10    18 1   
    15    10    23 1   
    16    11    12 1   
    17    11    13 1   
    18    11    24 1   
    19    12    25 1   
    20    13    14 1   
    21    13    15 1   
    22    13    26 1   
    23    14    27 1   
    24    15    16 1   
    25    15    17 1   
    26    15    28 1   
    27    16    29 1   
    28    17    18 1   
    29    17    19 1   
    30    17    30 1   
    31    19    20 1   
    32    19    31 1   
    33    19    32 1   
    34    20    33 1   
@<TRIPOS>SUBSTRUCTURE
     1 GPQ         1 TEMP              0 ****  ****    0 ROOT
