@<TRIPOS>MOLECULE
GPS
   60    62     1     0     0
SMALL
bcc


@<TRIPOS>ATOM
      1 C1          13.6080    17.1370    25.7830 c          1 GPS       0.925600
      2 N1          14.6510    15.0420    24.9350 n8         1 GPS      -0.862800
      3 C2          17.0690    15.8520    32.7230 c          1 GPS       0.662100
      4 N2          16.1830    16.7170    30.5700 ns         1 GPS      -0.576900
      5 C3          17.3400    12.6860    33.1900 c          1 GPS       0.923600
      6 O5          21.3940    19.2120    30.9710 oh         1 GPS      -0.579800
      7 O11         13.9280    17.6740    24.7060 o          1 GPS      -0.838800
      8 O12         12.8200    17.5920    26.6390 o          1 GPS      -0.838800
      9 O31         18.0820    12.8580    32.2100 o          1 GPS      -0.833800
     10 O32         17.3820    11.7780    34.0420 o          1 GPS      -0.833800
     11 CA1         14.2640    15.7800    26.1320 c3         1 GPS       0.018500
     12 CA2         17.1770    16.8820    31.5930 c3         1 GPS       0.010700
     13 CA3         16.1810    13.6960    33.3950 c3         1 GPS      -0.057000
     14 CA4         19.1240    19.3230    30.3820 c6         1 GPS       0.077700
     15 CA5         20.1380    19.6180    31.4750 c6         1 GPS       0.196400
     16 CB1         15.5270    15.9900    26.9770 c3         1 GPS      -0.038400
     17 CB2         17.1620    18.2970    32.1760 c3         1 GPS      -0.000300
     18 CB4         19.3250    20.2300    29.2020 ca         1 GPS      -0.032300
     19 CB5         20.1270    21.0860    31.8140 ca         1 GPS      -0.104300
     20 CD1         16.4740    16.5730    29.2530 c          1 GPS       0.674100
     21 CD4         19.2470    20.6020    26.8210 ca         1 GPS      -0.114000
     22 CD5         20.3580    22.8600    33.4330 ca         1 GPS      -0.142000
     23 OE1         17.6160    16.4370    28.8420 o          1 GPS      -0.618100
     24 CE4         19.6860    21.9050    27.0150 ca         1 GPS      -0.142000
     25 CE5         20.1830    23.7960    32.4230 ca         1 GPS      -0.134000
     26 CG1         15.2630    16.5910    28.3490 c3         1 GPS      -0.149400
     27 SG2         17.4060    19.5980    30.9410 ss         1 GPS      -0.336200
     28 CG4         19.0690    19.7710    27.9160 ca         1 GPS      -0.092000
     29 CG5         20.3250    21.5080    33.1200 ca         1 GPS      -0.118000
     30 CH4         19.7420    21.5500    29.4100 ca         1 GPS      -0.036000
     31 CH5         19.9640    22.0250    30.7880 ca         1 GPS       0.016000
     32 CZ4         19.9310    22.3710    28.2970 ca         1 GPS      -0.127000
     33 CZ5         19.9840    23.3810    31.1150 ca         1 GPS      -0.128000
     34 HN1         14.8830    14.0910    25.2000 hn         1 GPS       0.308800
     35 HN1A        13.8590    14.9670    24.3090 hn         1 GPS       0.308800
     36 HN2         15.2280    16.9330    30.8160 hn         1 GPS       0.307500
     37 HN3         15.7970    14.7590    31.6140 hn         1 GPS       0.311500
     38 HO5         22.0590    19.3790    31.6470 ho         1 GPS       0.396000
     39 HA1         13.5430    15.2240    26.7520 h1         1 GPS      -0.002300
     40 HA2         18.1500    16.6930    31.1330 h1         1 GPS       0.107700
     41 HA3         15.2330    13.1810    33.2240 h1         1 GPS       0.030700
     42 HA3A        16.1660    14.0270    34.4340 h1         1 GPS       0.030700
     43 HA4         19.2200    18.2830    30.0620 h1         1 GPS       0.122700
     44 HA5         19.8830    19.0450    32.3750 h1         1 GPS       0.054700
     45 HB1         16.0130    15.0170    27.1010 hc         1 GPS       0.040200
     46 HB1A        16.2270    16.6130    26.4160 hc         1 GPS       0.040200
     47 HB2         16.1830    18.5130    32.6120 h1         1 GPS       0.076200
     48 HB2A        17.8930    18.3870    32.9770 h1         1 GPS       0.076200
     49 HD4         19.0520    20.2330    25.8220 ha         1 GPS       0.140000
     50 HD5         20.5090    23.1800    34.4560 ha         1 GPS       0.120000
     51 HE4         19.8430    22.5590    26.1680 ha         1 GPS       0.117000
     52 HE5         20.1920    24.8530    32.6530 ha         1 GPS       0.116000
     53 HG1         14.9360    17.6310    28.2600 hc         1 GPS       0.070700
     54 HG1A        14.4400    16.0680    28.8430 hc         1 GPS       0.070700
     55 HG4         18.7310    18.7510    27.7760 ha         1 GPS       0.172000
     56 HG5         20.4470    20.7680    33.9030 ha         1 GPS       0.130000
     57 HZ4         20.2870    23.3860    28.4220 ha         1 GPS       0.113000
     58 HZ5         19.8220    24.1300    30.3500 ha         1 GPS       0.126000
     59 O2          17.7440    15.9900    33.7350 o          1 GPS      -0.645100
     60 N3          16.2220    14.8410    32.5230 ns         1 GPS      -0.510900
@<TRIPOS>BOND
     1     1     7 1   
     2     1     8 1   
     3     1    11 1   
     4     2    11 1   
     5     2    34 1   
     6     2    35 1   
     7     3    12 1   
     8     3    59 2   
     9     3    60 1   
    10     4    12 1   
    11     4    20 1   
    12     4    36 1   
    13     5     9 1   
    14     5    10 1   
    15     5    13 1   
    16     6    15 1   
    17     6    38 1   
    18    11    16 1   
    19    11    39 1   
    20    12    17 1   
    21    12    40 1   
    22    13    41 1   
    23    13    42 1   
    24    13    60 1   
    25    14    15 1   
    26    14    18 1   
    27    14    27 1   
    28    14    43 1   
    29    15    19 1   
    30    15    44 1   
    31    16    26 1   
    32    16    45 1   
    33    16    46 1   
    34    17    27 1   
    35    17    47 1   
    36    17    48 1   
    37    18    28 ar  
    38    18    30 ar  
    39    19    29 ar  
    40    19    31 ar  
    41    20    23 2   
    42    20    26 1   
    43    21    24 ar  
    44    21    28 ar  
    45    21    49 1   
    46    22    25 ar  
    47    22    29 ar  
    48    22    50 1   
    49    24    32 ar  
    50    24    51 1   
    51    25    33 ar  
    52    25    52 1   
    53    26    53 1   
    54    26    54 1   
    55    28    55 1   
    56    29    56 1   
    57    30    31 1   
    58    30    32 ar  
    59    31    33 ar  
    60    32    57 1   
    61    33    58 1   
    62    37    60 1   
@<TRIPOS>SUBSTRUCTURE
     1 GPS         1 TEMP              0 ****  ****    0 ROOT
