@<TRIPOS>MOLECULE
GPS
   60    62     1     0     0
SMALL
No Charge or Current Charge


@<TRIPOS>ATOM
      1 C1          14.5890    16.3600    25.1910 c          1 GPS       0.715000
      2 N1          14.0840    13.9050    25.9820 n8         1 GPS      -0.973200
      3 C2          17.3830    15.6410    32.5190 c          1 GPS       0.595100
      4 N2          16.5610    16.7340    30.3850 ns         1 GPS      -0.509900
      5 C3          15.3780    12.3860    32.1600 c          1 GPS       0.713000
      6 O5          21.3830    19.4380    31.1560 oh         1 GPS      -0.642000
      7 O11         15.6420    16.3610    24.5640 o          1 GPS      -0.733500
      8 O12         13.6510    17.0970    24.9140 o          1 GPS      -0.733500
      9 O31         14.4490    12.8080    31.4850 o          1 GPS      -0.728500
     10 O32         15.6900    11.2050    32.2140 o          1 GPS      -0.728500
     11 CA1         14.3950    15.3230    26.3820 c3         1 GPS       0.018500
     12 CA2         17.4840    16.8530    31.5480 c3         1 GPS       0.010700
     13 CA3         16.2470    13.4090    32.9430 c3         1 GPS      -0.057000
     14 CA4         19.0300    19.6380    30.5160 c6         1 GPS       0.125600
     15 CA5         20.1020    19.9130    31.5940 c6         1 GPS       0.219600
     16 CB1         15.5840    15.3390    27.3840 c3         1 GPS      -0.038400
     17 CB2         17.2540    18.1860    32.3010 c3         1 GPS       0.047600
     18 CB4         19.1420    20.6390    29.3660 ca         1 GPS      -0.032300
     19 CB5         20.2080    21.4010    31.9110 ca         1 GPS      -0.104300
     20 CD1         16.9640    16.6530    29.0690 c          1 GPS       0.607100
     21 CD4         18.7450    21.1300    27.0080 ca         1 GPS      -0.096000
     22 CD5         20.7890    23.1360    33.5260 ca         1 GPS      -0.124000
     23 OE1         18.1410    16.5640    28.7520 o          1 GPS      -0.618100
     24 CE4         19.1550    22.4520    27.2190 ca         1 GPS      -0.124000
     25 CE5         20.5760    24.1130    32.5460 ca         1 GPS      -0.116000
     26 CG1         15.8370    16.7200    28.0370 c3         1 GPS      -0.149400
     27 SG2         17.2860    19.6710    31.1770 ss         1 GPS      -0.432000
     28 CG4         18.7350    20.2290    28.0810 ca         1 GPS      -0.074000
     29 CG5         20.6100    21.7840    33.2070 ca         1 GPS      -0.100000
     30 CH4         19.5660    21.9770    29.5970 ca         1 GPS      -0.036000
     31 CH5         19.9790    22.3800    30.9060 ca         1 GPS       0.016000
     32 CZ4         19.5570    22.8740    28.4970 ca         1 GPS      -0.109000
     33 CZ5         20.1790    23.7420    31.2510 ca         1 GPS      -0.110000
     34 HN1         13.8610    13.3560    26.8190 hn         1 GPS       0.364000
     35 HN1A        13.2130    13.8930    25.4370 hn         1 GPS       0.364000
     36 HN2         15.5680    16.8660    30.5420 hn         1 GPS       0.307500
     37 HN3         16.0240    14.7540    31.2740 hn         1 GPS       0.311500
     38 HO5         22.0440    19.8430    31.7580 ho         1 GPS       0.435000
     39 HA1         13.5130    15.6610    26.9430 h1         1 GPS      -0.002300
     40 HA2         18.5190    16.8330    31.1850 h1         1 GPS       0.107700
     41 HA3         15.7160    13.6840    33.8630 h1         1 GPS       0.030700
     42 HA3A        17.2010    12.9380    33.2100 h1         1 GPS       0.030700
     43 HA4         19.2080    18.6330    30.1130 h1         1 GPS       0.122700
     44 HA5         19.8190    19.3790    32.5120 h1         1 GPS       0.054700
     45 HB1         15.3910    14.6100    28.1810 hc         1 GPS       0.040200
     46 HB1A        16.4980    15.0090    26.8720 hc         1 GPS       0.040200
     47 HB2         16.2710    18.1530    32.7900 h1         1 GPS       0.076200
     48 HB2A        18.0070    18.3040    33.0900 h1         1 GPS       0.076200
     49 HD4         18.4300    20.8060    26.0190 ha         1 GPS       0.122000
     50 HD5         21.0980    23.4260    34.5280 ha         1 GPS       0.102000
     51 HE4         19.1650    23.1540    26.3880 ha         1 GPS       0.099000
     52 HE5         20.7130    25.1640    32.7910 ha         1 GPS       0.098000
     53 HG1         16.1280    17.4350    27.2590 hc         1 GPS       0.070700
     54 HG1A        14.9100    17.0540    28.5180 hc         1 GPS       0.070700
     55 HG4         18.3970    19.2090    27.9150 ha         1 GPS       0.154000
     56 HG5         20.7920    21.0290    33.9700 ha         1 GPS       0.112000
     57 HZ4         19.8870    23.9020    28.5920 ha         1 GPS       0.095000
     58 HZ5         20.0030    24.5440    30.5430 ha         1 GPS       0.108000
     59 O2          18.0230    15.5850    33.5630 o          1 GPS      -0.645100
     60 N3          16.5150    14.6330    32.1530 ns         1 GPS      -0.443900
@<TRIPOS>BOND
     1     1     7 1   
     2     1     8 1   
     3     1    11 1   
     4     2    11 1   
     5     2    34 1   
     6     2    35 1   
     7     3    12 1   
     8     3    59 2   
     9     3    60 1   
    10     4    12 1   
    11     4    20 1   
    12     4    36 1   
    13     5     9 1   
    14     5    10 1   
    15     5    13 1   
    16     6    15 1   
    17     6    38 1   
    18    11    16 1   
    19    11    39 1   
    20    12    17 1   
    21    12    40 1   
    22    13    41 1   
    23    13    42 1   
    24    13    60 1   
    25    14    15 1   
    26    14    18 1   
    27    14    27 1   
    28    14    43 1   
    29    15    19 1   
    30    15    44 1   
    31    16    26 1   
    32    16    45 1   
    33    16    46 1   
    34    17    27 1   
    35    17    47 1   
    36    17    48 1   
    37    18    28 ar  
    38    18    30 ar  
    39    19    29 ar  
    40    19    31 ar  
    41    20    23 2   
    42    20    26 1   
    43    21    24 ar  
    44    21    28 ar  
    45    21    49 1   
    46    22    25 ar  
    47    22    29 ar  
    48    22    50 1   
    49    24    32 ar  
    50    24    51 1   
    51    25    33 ar  
    52    25    52 1   
    53    26    53 1   
    54    26    54 1   
    55    28    55 1   
    56    29    56 1   
    57    30    31 1   
    58    30    32 ar  
    59    31    33 ar  
    60    32    57 1   
    61    33    58 1   
    62    37    60 1   
@<TRIPOS>SUBSTRUCTURE
     1 GPS         1 TEMP              0 ****  ****    0 ROOT
