@<TRIPOS>MOLECULE
GPT
   43    44     1     0     0
SMALL
abcg2


@<TRIPOS>ATOM
      1 C1           4.2590     1.2790     0.7890 c3         1 GPT       0.181600
      2 C2           3.6110    -0.0050     0.3190 c3         1 GPT      -0.091400
      3 C3           2.0910     0.1280     0.2750 c5         1 GPT      -0.181700
      4 C4           1.3190    -1.2010     0.2720 c5         1 GPT       0.202000
      5 C6           1.1890    -1.8490     1.6350 c3         1 GPT      -0.122100
      6 F21          5.6400     1.1020     0.8790 f          1 GPT      -0.273000
      7 C19          1.5730     0.8210    -0.9690 c          1 GPT       0.577000
      8 O20          2.1080     1.7280    -1.5770 o          1 GPT      -0.545000
      9 N18          0.3960     0.2460    -1.2950 ns         1 GPT      -0.512900
     10 C7          -0.0370    -0.8200    -0.4250 c5         1 GPT      -0.022600
     11 C16         -0.4820    -2.0300    -1.2340 c          1 GPT       0.599900
     12 O17         -1.0510    -2.9710    -0.7470 o          1 GPT      -0.511100
     13 C8          -1.1530    -0.3910     0.5600 c3         1 GPT       0.175300
     14 O15         -0.7290     0.6710     1.3760 oh         1 GPT      -0.658000
     15 C9          -2.5270    -0.0890    -0.0830 c6         1 GPT      -0.053500
     16 C14         -3.6200    -0.2760     0.9750 c6         1 GPT      -0.072400
     17 C13         -4.9610     0.2720     0.5090 c6         1 GPT      -0.072400
     18 C12         -4.8690     1.7710     0.2570 c6         1 GPT      -0.050200
     19 C11         -3.6360     2.1180    -0.5160 c2         1 GPT      -0.189200
     20 C10         -2.6060     1.2910    -0.6860 c2         1 GPT      -0.253200
     21 O5           1.9240    -2.0920    -0.6510 oh         1 GPT      -0.671000
     22 H1           4.0690     2.1010     0.1010 h1         1 GPT       0.053200
     23 H1A          3.8920     1.5560     1.7800 h1         1 GPT       0.053200
     24 H2           4.0100    -0.2840    -0.6580 hc         1 GPT       0.060200
     25 H2A          3.8840    -0.7980     1.0210 hc         1 GPT       0.060200
     26 H3           1.7550     0.7140     1.1370 hc         1 GPT       0.095700
     27 H6           0.7560    -1.1740     2.3700 hc         1 GPT       0.058033
     28 H6A          0.5800    -2.7520     1.5880 hc         1 GPT       0.058033
     29 H6B          2.1760    -2.1380     2.0050 hc         1 GPT       0.058033
     30 HN18        -0.1300     0.5560    -2.0990 hn         1 GPT       0.330500
     31 H16         -0.2580    -1.9810    -2.3150 h4         1 GPT       0.011200
     32 H8          -1.3040    -1.2420     1.2300 h1         1 GPT       0.091700
     33 HO15        -0.8420     1.5010     0.8990 ho         1 GPT       0.455000
     34 H9          -2.7030    -0.8210    -0.8800 hc         1 GPT       0.062700
     35 H14         -3.7050    -1.3370     1.2190 hc         1 GPT       0.050700
     36 H14A        -3.3210     0.2380     1.8930 hc         1 GPT       0.050700
     37 H13         -5.2610    -0.2350    -0.4130 hc         1 GPT       0.044700
     38 H13A        -5.7350     0.0590     1.2500 hc         1 GPT       0.044700
     39 H12         -5.7500     2.1280    -0.2830 hc         1 GPT       0.051700
     40 H12A        -4.8680     2.3200     1.2060 hc         1 GPT       0.051700
     41 H11         -3.5980     3.0990    -0.9780 ha         1 GPT       0.174000
     42 H10         -1.7860     1.6350    -1.3080 ha         1 GPT       0.169000
     43 HO5          2.7020    -2.4900    -0.2450 ho         1 GPT       0.458000
@<TRIPOS>BOND
     1     1     2 1   
     2     1     6 1   
     3     1    22 1   
     4     1    23 1   
     5     2     3 1   
     6     2    24 1   
     7     2    25 1   
     8     3     4 1   
     9     3     7 1   
    10     3    26 1   
    11     4     5 1   
    12     4    10 1   
    13     4    21 1   
    14     5    27 1   
    15     5    28 1   
    16     5    29 1   
    17     7     8 2   
    18     7     9 1   
    19     9    10 1   
    20     9    30 1   
    21    10    11 1   
    22    10    13 1   
    23    11    12 2   
    24    11    31 1   
    25    13    14 1   
    26    13    15 1   
    27    13    32 1   
    28    14    33 1   
    29    15    16 1   
    30    15    20 1   
    31    15    34 1   
    32    16    17 1   
    33    16    35 1   
    34    16    36 1   
    35    17    18 1   
    36    17    37 1   
    37    17    38 1   
    38    18    19 1   
    39    18    39 1   
    40    18    40 1   
    41    19    20 2   
    42    19    41 1   
    43    20    42 1   
    44    21    43 1   
@<TRIPOS>SUBSTRUCTURE
     1 GPT         1 TEMP              0 ****  ****    0 ROOT
