@<TRIPOS>MOLECULE
GPT
   43    44     1     0     0
SMALL
No Charge or Current Charge


@<TRIPOS>ATOM
      1 C1           4.3150     1.4340     0.6270 c3         1 GPT       0.181600
      2 C2           3.6600     0.0590     0.3670 c3         1 GPT      -0.091400
      3 C3           2.0990     0.0820     0.2840 c5         1 GPT      -0.181700
      4 C4           1.3760    -1.3040     0.2600 c5         1 GPT       0.202000
      5 C6           1.2990    -2.0010     1.6420 c3         1 GPT      -0.122100
      6 F21          5.6570     1.2850     0.7530 f          1 GPT      -0.273000
      7 C19          1.5280     0.8080    -0.9450 c          1 GPT       0.577000
      8 O20          2.0280     1.6880    -1.6240 o          1 GPT      -0.545000
      9 N18          0.4010     0.1310    -1.3250 ns         1 GPT      -0.512900
     10 C7          -0.0310    -0.9330    -0.3880 c5         1 GPT      -0.022600
     11 C16         -0.4830    -2.1470    -1.2690 c          1 GPT       0.599900
     12 O17         -1.4050    -2.9220    -1.0210 o          1 GPT      -0.511100
     13 C8          -1.1930    -0.4830     0.5860 c3         1 GPT       0.175300
     14 O15         -0.7640     0.5820     1.4440 oh         1 GPT      -0.658000
     15 C9          -2.5700    -0.0550    -0.0460 c6         1 GPT      -0.053500
     16 C14         -3.7360    -0.2640     0.9640 c6         1 GPT      -0.072400
     17 C13         -5.0480     0.3550     0.4350 c6         1 GPT      -0.072400
     18 C12         -4.8920     1.8820     0.2470 c6         1 GPT      -0.050200
     19 C11         -3.5790     2.2450    -0.4320 c2         1 GPT      -0.189200
     20 C10         -2.5480     1.3920    -0.5640 c2         1 GPT      -0.253200
     21 O5           2.1060    -2.2080    -0.5690 oh         1 GPT      -0.671000
     22 H1           4.1190     2.1250    -0.2010 h1         1 GPT       0.053200
     23 H1A          3.9240     1.8710     1.5550 h1         1 GPT       0.053200
     24 H2           4.0820    -0.3500    -0.5600 hc         1 GPT       0.060200
     25 H2A          3.9720    -0.6130     1.1760 hc         1 GPT       0.060200
     26 H3           1.7430     0.6370     1.1570 hc         1 GPT       0.095700
     27 H6           0.8390    -1.3560     2.3990 hc         1 GPT       0.058033
     28 H6A          0.7070    -2.9230     1.5880 hc         1 GPT       0.058033
     29 H6B          2.2940    -2.2680     2.0160 hc         1 GPT       0.058033
     30 HN18        -0.0750     0.4230    -2.1720 hn         1 GPT       0.330500
     31 H16          0.0910    -2.2670    -2.2150 h4         1 GPT       0.011200
     32 H8          -1.4090    -1.3680     1.2030 h1         1 GPT       0.091700
     33 HO15        -1.3350     1.3460     1.2070 ho         1 GPT       0.455000
     34 H9          -2.7600    -0.7090    -0.9070 hc         1 GPT       0.062700
     35 H14         -3.8800    -1.3370     1.1520 hc         1 GPT       0.050700
     36 H14A        -3.4890     0.1910     1.9340 hc         1 GPT       0.050700
     37 H13         -5.3130    -0.1120    -0.5250 hc         1 GPT       0.044700
     38 H13A        -5.8760     0.1440     1.1260 hc         1 GPT       0.044700
     39 H12         -5.7360     2.2660    -0.3420 hc         1 GPT       0.051700
     40 H12A        -4.9410     2.3840     1.2240 hc         1 GPT       0.051700
     41 H11         -3.5100     3.2610    -0.8290 ha         1 GPT       0.174000
     42 H10         -1.6460     1.7220    -1.0800 ha         1 GPT       0.169000
     43 HO5          2.9810    -2.3380    -0.1450 ho         1 GPT       0.458000
@<TRIPOS>BOND
     1     1     2 1   
     2     1     6 1   
     3     1    22 1   
     4     1    23 1   
     5     2     3 1   
     6     2    24 1   
     7     2    25 1   
     8     3     4 1   
     9     3     7 1   
    10     3    26 1   
    11     4     5 1   
    12     4    10 1   
    13     4    21 1   
    14     5    27 1   
    15     5    28 1   
    16     5    29 1   
    17     7     8 2   
    18     7     9 1   
    19     9    10 1   
    20     9    30 1   
    21    10    11 1   
    22    10    13 1   
    23    11    12 2   
    24    11    31 1   
    25    13    14 1   
    26    13    15 1   
    27    13    32 1   
    28    14    33 1   
    29    15    16 1   
    30    15    20 1   
    31    15    34 1   
    32    16    17 1   
    33    16    35 1   
    34    16    36 1   
    35    17    18 1   
    36    17    37 1   
    37    17    38 1   
    38    18    19 1   
    39    18    39 1   
    40    18    40 1   
    41    19    20 2   
    42    19    41 1   
    43    20    42 1   
    44    21    43 1   
@<TRIPOS>SUBSTRUCTURE
     1 GPT         1 TEMP              0 ****  ****    0 ROOT
