@<TRIPOS>MOLECULE
GPU
   33    34     1     0     0
SMALL
No Charge or Current Charge


@<TRIPOS>ATOM
      1 N1           0.2330    -0.7970    -0.5600 n          1 GPU      -0.292000
      2 Br1          3.4930     1.6050     0.4510 br         1 GPU      -0.020700
      3 C2           0.8300    -1.8920    -1.2100 c          1 GPU       0.636000
      4 O2           0.1950    -2.8260    -1.6710 o          1 GPU      -0.539000
      5 N3           2.1850    -1.8630    -1.3160 ns         1 GPU      -0.466500
      6 C4           3.0450    -0.9090    -0.8720 c          1 GPU       0.604200
      7 O4           4.2500    -1.0130    -1.0350 o          1 GPU      -0.501000
      8 C5           2.3800     0.2220    -0.2000 cc         1 GPU      -0.261500
      9 C6           1.0100     0.2510    -0.0630 cd         1 GPU       0.050600
     10 C1          -1.2380    -0.7770    -0.3760 c6         1 GPU       0.336700
     11 C7          -1.6540    -1.0650     1.1060 c6         1 GPU       0.128300
     12 O1          -1.2620    -2.3780     1.5560 oh         1 GPU      -0.700000
     13 C3          -3.1960    -0.9190     1.2380 c6         1 GPU       0.098300
     14 O3          -3.6080    -1.1360     2.5990 oh         1 GPU      -0.664000
     15 C8          -3.6560     0.4850     0.7440 c6         1 GPU       0.113300
     16 O7          -5.0950     0.5800     0.8410 oh         1 GPU      -0.714000
     17 C9          -3.1430     0.7040    -0.7190 c6         1 GPU       0.179300
     18 O5          -1.7000     0.5390    -0.7620 os         1 GPU      -0.454000
     19 C10         -3.4850     2.1250    -1.2800 c3         1 GPU       0.172600
     20 O6          -2.9670     2.3550    -2.6070 oh         1 GPU      -0.706000
     21 HN3          2.6040    -2.6510    -1.7820 hn         1 GPU       0.346500
     22 H6           0.4560     1.0530     0.4190 h4         1 GPU       0.224000
     23 H1          -1.6980    -1.5300    -1.0340 h2         1 GPU       0.103700
     24 H2          -1.1840    -0.3030     1.7450 h1         1 GPU       0.053700
     25 HO2         -1.8400    -2.5550     2.3380 ho         1 GPU       0.526000
     26 H3          -3.6670    -1.6720     0.5870 h1         1 GPU       0.063700
     27 HO3         -4.5310    -0.7920     2.6460 ho         1 GPU       0.458000
     28 H4          -3.1850     1.2450     1.3880 h1         1 GPU       0.055700
     29 HO4         -5.3230     1.5220     1.0270 ho         1 GPU       0.516000
     30 H5          -3.6060    -0.0420    -1.3820 h1         1 GPU       0.072700
     31 H7          -4.5770     2.2400    -1.2830 h1         1 GPU       0.036700
     32 H6'A        -3.0800     2.8720    -0.5830 h1         1 GPU       0.036700
     33 HO6         -3.1680     3.2920    -2.8370 ho         1 GPU       0.508000
@<TRIPOS>BOND
     1     1     3 1   
     2     1     9 1   
     3     1    10 1   
     4     2     8 1   
     5     3     4 2   
     6     3     5 1   
     7     5     6 1   
     8     5    21 1   
     9     6     7 2   
    10     6     8 1   
    11     8     9 2   
    12     9    22 1   
    13    10    11 1   
    14    10    18 1   
    15    10    23 1   
    16    11    12 1   
    17    11    13 1   
    18    11    24 1   
    19    12    25 1   
    20    13    14 1   
    21    13    15 1   
    22    13    26 1   
    23    14    27 1   
    24    15    16 1   
    25    15    17 1   
    26    15    28 1   
    27    16    29 1   
    28    17    18 1   
    29    17    19 1   
    30    17    30 1   
    31    19    20 1   
    32    19    31 1   
    33    19    32 1   
    34    20    33 1   
@<TRIPOS>SUBSTRUCTURE
     1 GPU         1 TEMP              0 ****  ****    0 ROOT
