@<TRIPOS>MOLECULE
GPU
   33    34     1     0     0
SMALL
bcc


@<TRIPOS>ATOM
      1 N1           0.1470    -0.7820    -0.5650 n          1 GPU      -0.359000
      2 BR1          3.3420     1.4920     0.6530 br         1 GPU      -0.020700
      3 C2           0.6870    -1.8580    -1.2440 c          1 GPU       0.845500
      4 O2           0.0210    -2.7340    -1.7480 o          1 GPU      -0.614500
      5 N3           2.0560    -1.8550    -1.3060 ns         1 GPU      -0.600500
      6 C4           2.9430    -0.9320    -0.7860 c          1 GPU       0.746700
      7 O4           4.1400    -1.0620    -0.9150 o          1 GPU      -0.576500
      8 C5           2.2760     0.1580    -0.0970 cc         1 GPU      -0.261500
      9 C6           0.9360     0.1860    -0.0150 cd         1 GPU       0.100600
     10 C1          -1.2920    -0.7050    -0.3760 c6         1 GPU       0.313500
     11 C7          -1.6660    -0.9290     1.0860 c6         1 GPU       0.105100
     12 O1          -1.2160    -2.2040     1.4410 oh         1 GPU      -0.577800
     13 C3          -3.1770    -0.7760     1.2080 c6         1 GPU       0.075100
     14 O3          -3.5200    -0.9280     2.5660 oh         1 GPU      -0.601800
     15 C8          -3.6140     0.5840     0.6640 c6         1 GPU       0.090100
     16 O7          -5.0160     0.6950     0.6370 oh         1 GPU      -0.591800
     17 C9          -3.1000     0.7550    -0.7670 c6         1 GPU       0.156100
     18 O5          -1.6940     0.5590    -0.8010 os         1 GPU      -0.407600
     19 C10         -3.3740     2.1380    -1.3150 c3         1 GPU       0.149400
     20 O6          -2.9370     2.1880    -2.6520 oh         1 GPU      -0.583800
     21 HN3          2.4650    -2.6430    -1.7960 hn         1 GPU       0.346500
     22 H6           0.4150     0.9880     0.4880 h4         1 GPU       0.174000
     23 H1          -1.7380    -1.4940    -0.9900 h2         1 GPU       0.103700
     24 H2          -1.1880    -0.1480     1.7000 h1         1 GPU       0.053700
     25 HO2         -1.4680    -2.3680     2.3570 ho         1 GPU       0.427000
     26 H3          -3.6490    -1.5600     0.5970 h1         1 GPU       0.063700
     27 HO3         -4.3820    -1.3470     2.6250 ho         1 GPU       0.419000
     28 H4          -3.1660     1.3710     1.2900 h1         1 GPU       0.055700
     29 HO4         -5.3250     0.9220     1.5190 ho         1 GPU       0.417000
     30 H5          -3.5900     0.0070    -1.4110 h1         1 GPU       0.072700
     31 H7          -4.4480     2.3310    -1.2310 h1         1 GPU       0.036700
     32 H6'A        -2.8610     2.8800    -0.6890 h1         1 GPU       0.036700
     33 HO6         -3.1910     3.0420    -3.0140 ho         1 GPU       0.409000
@<TRIPOS>BOND
     1     1     3 1   
     2     1     9 1   
     3     1    10 1   
     4     2     8 1   
     5     3     4 2   
     6     3     5 1   
     7     5     6 1   
     8     5    21 1   
     9     6     7 2   
    10     6     8 1   
    11     8     9 2   
    12     9    22 1   
    13    10    11 1   
    14    10    18 1   
    15    10    23 1   
    16    11    12 1   
    17    11    13 1   
    18    11    24 1   
    19    12    25 1   
    20    13    14 1   
    21    13    15 1   
    22    13    26 1   
    23    14    27 1   
    24    15    16 1   
    25    15    17 1   
    26    15    28 1   
    27    16    29 1   
    28    17    18 1   
    29    17    19 1   
    30    17    30 1   
    31    19    20 1   
    32    19    31 1   
    33    19    32 1   
    34    20    33 1   
@<TRIPOS>SUBSTRUCTURE
     1 GPU         1 TEMP              0 ****  ****    0 ROOT
