@<TRIPOS>MOLECULE
GPV
   33    34     1     0     0
SMALL
abcg2


@<TRIPOS>ATOM
      1 I            3.1510     1.2270     0.2760 i          1 GPV      -0.095800
      2 N1          -0.4250    -1.0990    -0.3620 n          1 GPV      -0.293000
      3 C2          -0.0140    -2.3420    -0.8070 c          1 GPV       0.636000
      4 O2          -0.7780    -3.2360    -1.0930 o          1 GPV      -0.539000
      5 N3           1.3450    -2.4840    -0.9030 ns         1 GPV      -0.466500
      6 C4           2.3330    -1.5590    -0.6190 c          1 GPV       0.604200
      7 O4           3.5060    -1.8330    -0.7500 o          1 GPV      -0.506000
      8 C5           1.8000    -0.2870    -0.1720 cc         1 GPV      -0.186400
      9 C6           0.4720    -0.1150    -0.0650 cd         1 GPV       0.059600
     10 C1          -1.8430    -0.8330    -0.1850 c6         1 GPV       0.334700
     11 C7          -2.1910    -0.6550     1.2910 c6         1 GPV       0.132300
     12 O1          -1.8790    -1.8570     1.9350 oh         1 GPV      -0.700000
     13 C3          -3.6670    -0.2930     1.3880 c6         1 GPV       0.100300
     14 O3          -3.9600    -0.0630     2.7470 oh         1 GPV      -0.665000
     15 C8          -3.9700     0.9310     0.5250 c6         1 GPV       0.110300
     16 O7          -5.3520     1.1990     0.5020 oh         1 GPV      -0.715000
     17 C9          -3.5080     0.6700    -0.9100 c6         1 GPV       0.178300
     18 O5          -2.1320     0.3220    -0.9100 os         1 GPV      -0.454000
     19 C10         -3.6690     1.8860    -1.7950 c3         1 GPV       0.172600
     20 O6          -3.2820     1.5470    -3.1050 oh         1 GPV      -0.705000
     21 H6           0.0480     0.8260     0.2550 h4         1 GPV       0.221000
     22 H1          -2.3830    -1.7000    -0.5810 h2         1 GPV       0.104700
     23 H2          -1.6040     0.1830     1.6990 h1         1 GPV       0.052700
     24 HO2         -2.1330    -1.7760     2.8610 ho         1 GPV       0.527000
     25 H3          -4.2560    -1.1400     1.0020 h1         1 GPV       0.063700
     26 HO3         -4.8890    -0.2570     2.9030 ho         1 GPV       0.458000
     27 H4          -3.4070     1.7890     0.9180 h1         1 GPV       0.056700
     28 HO4         -5.5730     1.7430     1.2640 ho         1 GPV       0.516000
     29 H5          -4.0970    -0.1620    -1.3280 h1         1 GPV       0.072700
     30 H7          -4.7160     2.2020    -1.7480 h1         1 GPV       0.036200
     31 H6'A        -3.0640     2.7080    -1.3880 h1         1 GPV       0.036200
     32 HO6         -3.5030     2.2840    -3.6810 ho         1 GPV       0.508000
     33 HN3          1.6600    -3.3910    -1.2290 hn         1 GPV       0.346500
@<TRIPOS>BOND
     1     1     8 1   
     2     2     3 1   
     3     2     9 1   
     4     2    10 1   
     5     3     4 2   
     6     3     5 1   
     7     5     6 1   
     8     5    33 1   
     9     6     7 2   
    10     6     8 1   
    11     8     9 2   
    12     9    21 1   
    13    10    11 1   
    14    10    18 1   
    15    10    22 1   
    16    11    12 1   
    17    11    13 1   
    18    11    23 1   
    19    12    24 1   
    20    13    14 1   
    21    13    15 1   
    22    13    25 1   
    23    14    26 1   
    24    15    16 1   
    25    15    17 1   
    26    15    27 1   
    27    16    28 1   
    28    17    18 1   
    29    17    19 1   
    30    17    29 1   
    31    19    20 1   
    32    19    30 1   
    33    19    31 1   
    34    20    32 1   
@<TRIPOS>SUBSTRUCTURE
     1 GPV         1 TEMP              0 ****  ****    0 ROOT
