@<TRIPOS>MOLECULE
GPV
   33    34     1     0     0
SMALL
No Charge or Current Charge


@<TRIPOS>ATOM
      1 I            3.2870     1.3190    -0.0020 i          1 GPV      -0.095800
      2 N1          -0.3460    -1.1170    -0.3770 n          1 GPV      -0.293000
      3 C2           0.1120    -2.3960    -0.7410 c          1 GPV       0.636000
      4 O2          -0.6300    -3.3420    -0.9430 o          1 GPV      -0.539000
      5 N3           1.4580    -2.5360    -0.8720 ns         1 GPV      -0.466500
      6 C4           2.4250    -1.5970    -0.6940 c          1 GPV       0.604200
      7 O4           3.6070    -1.8630    -0.8440 o          1 GPV      -0.506000
      8 C5           1.9050    -0.2700    -0.3150 cc         1 GPV      -0.186400
      9 C6           0.5510    -0.0670    -0.1690 cd         1 GPV       0.059600
     10 C1          -1.7990    -0.8960    -0.1820 c6         1 GPV       0.334700
     11 C7          -2.1810    -0.7630     1.3310 c6         1 GPV       0.132300
     12 O1          -1.9010    -1.9570     2.0890 oh         1 GPV      -0.700000
     13 C3          -3.6930    -0.4250     1.4450 c6         1 GPV       0.100300
     14 O3          -4.0690    -0.2530     2.8230 oh         1 GPV      -0.665000
     15 C8          -4.0310     0.8550     0.6240 c6         1 GPV       0.110300
     16 O7          -5.4480     1.1240     0.7150 oh         1 GPV      -0.715000
     17 C9          -3.5580     0.6500    -0.8550 c6         1 GPV       0.178300
     18 O5          -2.1420     0.3250    -0.8770 os         1 GPV      -0.454000
     19 C10         -3.7790     1.9160    -1.7480 c3         1 GPV       0.172600
     20 O6          -3.2930     1.7550    -3.0970 oh         1 GPV      -0.705000
     21 H6           0.1000     0.8830     0.1050 h4         1 GPV       0.221000
     22 H1          -2.3580    -1.7340    -0.6230 h2         1 GPV       0.104700
     23 H2          -1.6110     0.0790     1.7520 h1         1 GPV       0.052700
     24 HO2         -2.4610    -1.8730     2.9000 ho         1 GPV       0.527000
     25 H3          -4.2630    -1.2610     1.0100 h1         1 GPV       0.063700
     26 HO3         -4.9490     0.1900     2.7950 ho         1 GPV       0.458000
     27 H4          -3.4610     1.6950     1.0500 h1         1 GPV       0.056700
     28 HO4         -5.5740     2.1010     0.6570 ho         1 GPV       0.516000
     29 H5          -4.1200    -0.1830    -1.3050 h1         1 GPV       0.072700
     30 H7          -4.8530     2.1430    -1.7650 h1         1 GPV       0.036200
     31 H6'A        -3.2740     2.7640    -1.2660 h1         1 GPV       0.036200
     32 HO6         -3.4090     2.6220    -3.5520 ho         1 GPV       0.508000
     33 HN3          1.7790    -3.4550    -1.1330 hn         1 GPV       0.346500
@<TRIPOS>BOND
     1     1     8 1   
     2     2     3 1   
     3     2     9 1   
     4     2    10 1   
     5     3     4 2   
     6     3     5 1   
     7     5     6 1   
     8     5    33 1   
     9     6     7 2   
    10     6     8 1   
    11     8     9 2   
    12     9    21 1   
    13    10    11 1   
    14    10    18 1   
    15    10    22 1   
    16    11    12 1   
    17    11    13 1   
    18    11    23 1   
    19    12    24 1   
    20    13    14 1   
    21    13    15 1   
    22    13    25 1   
    23    14    26 1   
    24    15    16 1   
    25    15    17 1   
    26    15    27 1   
    27    16    28 1   
    28    17    18 1   
    29    17    19 1   
    30    17    29 1   
    31    19    20 1   
    32    19    30 1   
    33    19    31 1   
    34    20    32 1   
@<TRIPOS>SUBSTRUCTURE
     1 GPV         1 TEMP              0 ****  ****    0 ROOT
