@<TRIPOS>MOLECULE
GPW
   36    37     1     0     0
SMALL
No Charge or Current Charge


@<TRIPOS>ATOM
      1 F1           4.6670     1.1130    -1.0530 f          1 GPW      -0.109000
      2 N1           0.3630    -0.0010     0.2630 n          1 GPW      -0.287000
      3 C2           0.5300     0.3910     1.6040 c          1 GPW       0.630000
      4 F2           3.7210    -0.4690    -2.1980 f          1 GPW      -0.109000
      5 O2          -0.3840     0.4960     2.4060 o          1 GPW      -0.527000
      6 F3           4.8510    -0.9670    -0.4140 f          1 GPW      -0.109000
      7 N3           1.8060     0.6320     1.9990 ns         1 GPW      -0.466500
      8 C4           2.9500     0.5280     1.2810 c          1 GPW       0.611200
      9 O4           4.0270     0.7840     1.7890 o          1 GPW      -0.503000
     10 C5           2.7460     0.0870    -0.1090 cc         1 GPW      -0.418400
     11 C6           1.4680    -0.1660    -0.5690 cd         1 GPW       0.092600
     12 C7           3.9990    -0.0580    -0.9400 c3         1 GPW       0.392200
     13 C1          -0.9900    -0.2150    -0.3090 c6         1 GPW       0.352700
     14 C8          -1.6410    -1.5550     0.1680 c6         1 GPW       0.127300
     15 O1          -0.8740    -2.7190    -0.2140 oh         1 GPW      -0.716000
     16 C3          -3.0720    -1.6650    -0.4270 c6         1 GPW       0.097300
     17 O3          -3.7230    -2.8570     0.0450 oh         1 GPW      -0.661000
     18 C9          -3.9140    -0.4030    -0.0710 c6         1 GPW       0.112300
     19 O7          -5.2270    -0.5220    -0.6650 oh         1 GPW      -0.716000
     20 C10         -3.1520     0.8720    -0.5680 c6         1 GPW       0.180300
     21 O5          -1.8270     0.9140     0.0240 os         1 GPW      -0.430000
     22 C11         -3.8870     2.2050    -0.2050 c3         1 GPW       0.172600
     23 O6          -3.1640     3.3860    -0.6140 oh         1 GPW      -0.711000
     24 H6           1.2290    -0.4990    -1.5770 h4         1 GPW       0.222000
     25 H1          -0.8910    -0.2540    -1.4040 h2         1 GPW       0.053700
     26 H2          -1.7320    -1.5120     1.2650 h1         1 GPW       0.091700
     27 HO2         -1.5140    -3.4710    -0.1560 ho         1 GPW       0.529000
     28 H3          -2.9820    -1.7070    -1.5240 h1         1 GPW       0.053700
     29 HO3         -4.6760    -2.7350    -0.1790 ho         1 GPW       0.456000
     30 H4          -3.9980    -0.3440     1.0260 h1         1 GPW       0.067700
     31 HO4         -5.8710    -0.0680    -0.0690 ho         1 GPW       0.517000
     32 H5          -3.0480     0.8300    -1.6630 h1         1 GPW       0.062700
     33 H7          -4.8770     2.1930    -0.6800 h1         1 GPW       0.041700
     34 H6'A        -4.0470     2.2190     0.8820 h1         1 GPW       0.041700
     35 HO6         -3.6680     4.1650    -0.2790 ho         1 GPW       0.509000
     36 HN3          1.9170     0.9170     2.9580 hn         1 GPW       0.349500
@<TRIPOS>BOND
     1     1    12 1   
     2     2     3 1   
     3     2    11 1   
     4     2    13 1   
     5     3     5 2   
     6     3     7 1   
     7     4    12 1   
     8     6    12 1   
     9     7     8 1   
    10     7    36 1   
    11     8     9 2   
    12     8    10 1   
    13    10    11 2   
    14    10    12 1   
    15    11    24 1   
    16    13    14 1   
    17    13    21 1   
    18    13    25 1   
    19    14    15 1   
    20    14    16 1   
    21    14    26 1   
    22    15    27 1   
    23    16    17 1   
    24    16    18 1   
    25    16    28 1   
    26    17    29 1   
    27    18    19 1   
    28    18    20 1   
    29    18    30 1   
    30    19    31 1   
    31    20    21 1   
    32    20    22 1   
    33    20    32 1   
    34    22    23 1   
    35    22    33 1   
    36    22    34 1   
    37    23    35 1   
@<TRIPOS>SUBSTRUCTURE
     1 GPW         1 TEMP              0 ****  ****    0 ROOT
