@<TRIPOS>MOLECULE
GPW
   36    37     1     0     0
SMALL
abcg2


@<TRIPOS>ATOM
      1 F1           4.4370     1.2470    -1.0900 f          1 GPW      -0.109000
      2 N1           0.2940    -0.0070     0.3480 n          1 GPW      -0.287000
      3 C2           0.4850     0.1970     1.7100 c          1 GPW       0.630000
      4 F2           3.3230    -0.1020    -2.3420 f          1 GPW      -0.109000
      5 O2          -0.4190     0.2360     2.5090 o          1 GPW      -0.527000
      6 F3           4.6280    -0.8740    -0.8160 f          1 GPW      -0.109000
      7 N3           1.7950     0.3510     2.0800 ns         1 GPW      -0.466500
      8 C4           2.9220     0.3300     1.2830 c          1 GPW       0.611200
      9 O4           4.0300     0.4760     1.7560 o          1 GPW      -0.503000
     10 C5           2.6240     0.1240    -0.1200 cc         1 GPW      -0.418400
     11 C6           1.3440    -0.0330    -0.5090 cd         1 GPW       0.092600
     12 C7           3.7500     0.0980    -1.0900 c3         1 GPW       0.392200
     13 C1          -1.0490    -0.2060    -0.1820 c6         1 GPW       0.352700
     14 C8          -1.7320    -1.4620     0.3540 c6         1 GPW       0.127300
     15 O1          -0.8980    -2.5420     0.0340 oh         1 GPW      -0.716000
     16 C3          -3.0970    -1.5500    -0.3180 c6         1 GPW       0.097300
     17 O3          -3.7700    -2.6660     0.2200 oh         1 GPW      -0.661000
     18 C9          -3.8810    -0.2580    -0.0870 c6         1 GPW       0.112300
     19 O7          -5.0960    -0.2650    -0.7950 oh         1 GPW      -0.716000
     20 C10         -3.0580     0.9350    -0.5780 c6         1 GPW       0.180300
     21 O5          -1.7940     0.9400     0.0660 os         1 GPW      -0.430000
     22 C11         -3.7280     2.2580    -0.2760 c3         1 GPW       0.172600
     23 O6          -2.9530     3.2930    -0.8310 oh         1 GPW      -0.711000
     24 H6           1.0820    -0.1860    -1.5460 h4         1 GPW       0.222000
     25 H1          -0.9130    -0.3490    -1.2630 h2         1 GPW       0.053700
     26 H2          -1.8860    -1.3760     1.4360 h1         1 GPW       0.091700
     27 HO2         -1.3490    -3.3540     0.2900 ho         1 GPW       0.529000
     28 H3          -2.9450    -1.6740    -1.4010 h1         1 GPW       0.053700
     29 HO3         -4.3070    -3.0700    -0.4670 ho         1 GPW       0.456000
     30 H4          -4.0520    -0.1390     0.9940 h1         1 GPW       0.067700
     31 HO4         -5.7010    -0.8720    -0.3560 ho         1 GPW       0.517000
     32 H5          -2.9170     0.8420    -1.6670 h1         1 GPW       0.062700
     33 H7          -4.7370     2.2320    -0.6990 h1         1 GPW       0.041700
     34 H6'A        -3.8340     2.3630     0.8120 h1         1 GPW       0.041700
     35 HO6         -3.4300     4.1190    -0.7070 ho         1 GPW       0.509000
     36 HN3          1.9460     0.4930     3.0730 hn         1 GPW       0.349500
@<TRIPOS>BOND
     1     1    12 1   
     2     2     3 1   
     3     2    11 1   
     4     2    13 1   
     5     3     5 2   
     6     3     7 1   
     7     4    12 1   
     8     6    12 1   
     9     7     8 1   
    10     7    36 1   
    11     8     9 2   
    12     8    10 1   
    13    10    11 2   
    14    10    12 1   
    15    11    24 1   
    16    13    14 1   
    17    13    21 1   
    18    13    25 1   
    19    14    15 1   
    20    14    16 1   
    21    14    26 1   
    22    15    27 1   
    23    16    17 1   
    24    16    18 1   
    25    16    28 1   
    26    17    29 1   
    27    18    19 1   
    28    18    20 1   
    29    18    30 1   
    30    19    31 1   
    31    20    21 1   
    32    20    22 1   
    33    20    32 1   
    34    22    23 1   
    35    22    33 1   
    36    22    34 1   
    37    23    35 1   
@<TRIPOS>SUBSTRUCTURE
     1 GPW         1 TEMP              0 ****  ****    0 ROOT
