@<TRIPOS>MOLECULE
GQ0
   36    38     1     0     0
SMALL
No Charge or Current Charge


@<TRIPOS>ATOM
      1 C15         -5.6200   -12.9210   -25.0650 cc         1 GQ0       0.278300
      2 C17         -4.3760   -11.3150   -25.9010 cd         1 GQ0       0.128300
      3 C20         -5.3870   -15.4240   -25.1780 c3         1 GQ0      -0.083433
      4 C21         -7.5190   -14.4300   -24.2730 c3         1 GQ0      -0.083433
      5 C02         -2.8190    -8.5070   -24.6450 cc         1 GQ0       0.418700
      6 C04         -1.4940   -10.3140   -24.6480 ca         1 GQ0       0.152500
      7 C06          0.1790   -11.7100   -24.0070 ca         1 GQ0       0.419900
      8 C08         -0.0410    -9.7610   -22.8350 ca         1 GQ0       0.319000
      9 C09         -1.1330    -9.4270   -23.6630 ca         1 GQ0      -0.080600
     10 C12         -3.3010   -10.3720   -26.3680 c3         1 GQ0       0.056300
     11 C16         -4.2890   -12.5140   -25.2770 cc         1 GQ0      -0.197000
     12 C18         -5.9780   -14.2350   -24.3740 c3         1 GQ0      -0.083300
     13 C19         -5.3890   -14.2440   -22.9370 c3         1 GQ0      -0.083433
     14 N01         -1.9450    -8.2890   -23.6420 nd         1 GQ0      -0.511100
     15 N03         -2.5590    -9.7290   -25.2680 na         1 GQ0      -0.296300
     16 N05         -0.8470   -11.4790   -24.8460 nb         1 GQ0      -0.267000
     17 N07          0.6260   -10.9230   -23.0120 nb         1 GQ0      -0.260000
     18 N14         -6.5020   -12.0420   -25.5240 nd         1 GQ0      -0.349300
     19 O13         -5.6920   -10.9830   -26.0740 os         1 GQ0      -0.074700
     20 Cl1          0.5080    -8.6990   -21.5430 cl         1 GQ0      -0.130000
     21 H1          -4.2930   -15.3660   -25.2290 hc         1 GQ0       0.041033
     22 H2          -5.6480   -16.3830   -24.7130 hc         1 GQ0       0.041033
     23 H3          -5.7720   -15.4290   -26.2050 hc         1 GQ0       0.041033
     24 H4          -7.7640   -15.3770   -23.7750 hc         1 GQ0       0.041033
     25 H5          -7.9820   -13.6200   -23.6960 hc         1 GQ0       0.041033
     26 H6          -7.9800   -14.4470   -25.2680 hc         1 GQ0       0.041033
     27 H7          -3.6280    -7.8540   -24.9510 h5         1 GQ0       0.073800
     28 H8          -2.5960   -10.9260   -27.0010 h1         1 GQ0       0.086700
     29 H9          -3.7560    -9.5920   -26.9920 h1         1 GQ0       0.086700
     30 H10         -3.3930   -13.0500   -24.9900 ha         1 GQ0       0.162000
     31 H11         -4.2950   -14.1670   -22.9540 hc         1 GQ0       0.041033
     32 H12         -5.7760   -13.4000   -22.3540 hc         1 GQ0       0.041033
     33 H13         -5.6500   -15.1690   -22.4100 hc         1 GQ0       0.041033
     34 H14          0.6970   -13.3790   -25.0600 hn         1 GQ0       0.506500
     35 H15          1.7540   -12.9890   -23.7480 hn         1 GQ0       0.506500
     36 N10          0.8450   -12.8740   -24.1890 nv         1 GQ0      -1.067900
@<TRIPOS>BOND
     1     1    11 1   
     2     1    12 1   
     3     1    18 2   
     4     2    10 1   
     5     2    11 2   
     6     2    19 1   
     7     3    12 1   
     8     3    21 1   
     9     3    22 1   
    10     3    23 1   
    11     4    12 1   
    12     4    24 1   
    13     4    25 1   
    14     4    26 1   
    15     5    14 2   
    16     5    15 1   
    17     5    27 1   
    18     6     9 ar  
    19     6    15 1   
    20     6    16 ar  
    21     7    16 ar  
    22     7    17 ar  
    23     7    36 1   
    24     8     9 ar  
    25     8    17 ar  
    26     8    20 1   
    27     9    14 1   
    28    10    15 1   
    29    10    28 1   
    30    10    29 1   
    31    11    30 1   
    32    12    13 1   
    33    13    31 1   
    34    13    32 1   
    35    13    33 1   
    36    18    19 1   
    37    34    36 1   
    38    35    36 1   
@<TRIPOS>SUBSTRUCTURE
     1 GQ0         1 TEMP              0 ****  ****    0 ROOT
