@<TRIPOS>MOLECULE
GQ0
   36    38     1     0     0
SMALL
bcc


@<TRIPOS>ATOM
      1 C15         -5.4630   -12.9690   -24.9910 cc         1 GQ0       0.343600
      2 C17         -4.2570   -11.3830   -25.8810 cd         1 GQ0       0.238000
      3 C20         -5.6210   -15.4060   -25.3600 c3         1 GQ0      -0.083433
      4 C21         -7.4210   -14.2350   -24.0780 c3         1 GQ0      -0.083433
      5 C02         -2.8120    -8.5140   -24.8200 cc         1 GQ0       0.418700
      6 C04         -1.5270   -10.2730   -24.6250 ca         1 GQ0       0.480800
      7 C06          0.0400   -11.6490   -23.8870 ca         1 GQ0       0.945900
      8 C08         -0.1970    -9.6440   -22.8200 ca         1 GQ0       0.647300
      9 C09         -1.2280    -9.2930   -23.6730 ca         1 GQ0      -0.211200
     10 C12         -3.2560   -10.4230   -26.4250 c3         1 GQ0       0.027000
     11 C16         -4.1640   -12.6710   -25.4910 cc         1 GQ0      -0.345600
     12 C18         -5.9240   -14.2650   -24.3840 c3         1 GQ0      -0.083300
     13 C19         -5.1390   -14.4820   -23.0840 c3         1 GQ0      -0.083433
     14 N01         -2.0470    -8.2020   -23.8210 nd         1 GQ0      -0.511100
     15 N03         -2.5450    -9.7480   -25.3580 na         1 GQ0      -0.267000
     16 N05         -0.9390   -11.4420   -24.7710 nb         1 GQ0      -0.793000
     17 N07          0.4250   -10.7860   -22.9200 nb         1 GQ0      -0.786000
     18 N14         -6.2400   -11.9300   -25.0950 nd         1 GQ0      -0.349300
     19 O13         -5.4930   -10.9340   -25.6500 os         1 GQ0      -0.119100
     20 CL1          0.3020    -8.5600   -21.5770 cl         1 GQ0      -0.130000
     21 H1          -4.5550   -15.4790   -25.5790 hc         1 GQ0       0.041033
     22 H2          -5.9330   -16.3570   -24.9250 hc         1 GQ0       0.041033
     23 H3          -6.1530   -15.2760   -26.3030 hc         1 GQ0       0.041033
     24 H4          -7.7160   -15.1830   -23.6260 hc         1 GQ0       0.041033
     25 H5          -7.6760   -13.4390   -23.3780 hc         1 GQ0       0.041033
     26 H6          -8.0150   -14.0970   -24.9820 hc         1 GQ0       0.041033
     27 H7          -3.5930    -7.8900   -25.2320 h5         1 GQ0       0.073800
     28 H8          -2.5330   -10.9570   -27.0400 h1         1 GQ0       0.086700
     29 H9          -3.7320    -9.6700   -27.0530 h1         1 GQ0       0.086700
     30 H10         -3.3010   -13.3130   -25.5400 ha         1 GQ0       0.180000
     31 H11         -4.0630   -14.5110   -23.2620 hc         1 GQ0       0.041033
     32 H12         -5.3410   -13.6890   -22.3620 hc         1 GQ0       0.041033
     33 H13         -5.4280   -15.4320   -22.6310 hc         1 GQ0       0.041033
     34 H14          0.5280   -13.4560   -24.6940 hn         1 GQ0       0.451300
     35 H15          1.5050   -12.9640   -23.3600 hn         1 GQ0       0.451300
     36 N10          0.6960   -12.8170   -23.9370 nv         1 GQ0      -0.957500
@<TRIPOS>BOND
     1     1    11 1   
     2     1    12 1   
     3     1    18 2   
     4     2    10 1   
     5     2    11 2   
     6     2    19 1   
     7     3    12 1   
     8     3    21 1   
     9     3    22 1   
    10     3    23 1   
    11     4    12 1   
    12     4    24 1   
    13     4    25 1   
    14     4    26 1   
    15     5    14 2   
    16     5    15 1   
    17     5    27 1   
    18     6     9 ar  
    19     6    15 1   
    20     6    16 ar  
    21     7    16 ar  
    22     7    17 ar  
    23     7    36 1   
    24     8     9 ar  
    25     8    17 ar  
    26     8    20 1   
    27     9    14 1   
    28    10    15 1   
    29    10    28 1   
    30    10    29 1   
    31    11    30 1   
    32    12    13 1   
    33    13    31 1   
    34    13    32 1   
    35    13    33 1   
    36    18    19 1   
    37    34    36 1   
    38    35    36 1   
@<TRIPOS>SUBSTRUCTURE
     1 GQ0         1 TEMP              0 ****  ****    0 ROOT
