@<TRIPOS>MOLECULE
GQ1
   27    27     1     0     0
SMALL
abcg2


@<TRIPOS>ATOM
      1 SA          33.6080   -20.5780    42.0270 s6         1 GQ1       1.496300
      2 C1          33.1530   -25.0190    40.2340 c6         1 GQ1       0.403300
      3 O1S         34.8010   -19.7580    42.2150 o          1 GQ1      -0.708200
      4 C2          32.0680   -24.8360    41.2840 c6         1 GQ1       0.161300
      5 O2S         32.8060   -20.7700    43.2450 o          1 GQ1      -0.708200
      6 C3          32.2530   -23.4880    41.9660 c6         1 GQ1       0.102300
      7 O3S         32.8190   -20.2320    40.8440 o          1 GQ1      -0.708200
      8 C4          33.7320   -23.2130    42.3330 c6         1 GQ1       0.188300
      9 C5          34.6870   -24.3680    42.0220 c6         1 GQ1       0.178300
     10 C6          34.7600   -25.3560    43.1870 c3         1 GQ1       0.133600
     11 O1          33.0580   -23.9740    39.3210 oh         1 GQ1      -0.694000
     12 O2          30.8170   -24.9440    40.6570 oh         1 GQ1      -0.715000
     13 O3          31.4070   -23.4650    43.0900 oh         1 GQ1      -0.761000
     14 O4          34.2470   -22.0600    41.6740 os         1 GQ1      -0.590700
     15 O5          34.4190   -25.0870    40.8280 os         1 GQ1      -0.505000
     16 H1          33.0250   -25.9870    39.7330 h2         1 GQ1       0.043700
     17 H2          32.1960   -25.6390    42.0230 h1         1 GQ1       0.030700
     18 H3          31.9440   -22.7310    41.2370 h1         1 GQ1       0.094700
     19 H4          33.7870   -23.0620    43.4150 h1         1 GQ1       0.071700
     20 H5          35.6890   -23.9430    41.9070 h1         1 GQ1       0.097700
     21 H61         33.7580   -25.7030    43.4700 h1         1 GQ1       0.018200
     22 H62         35.3200   -26.2370    42.8510 h1         1 GQ1       0.018200
     23 HO2         30.1390   -24.8510    41.3340 ho         1 GQ1       0.514000
     24 HO3         31.4330   -22.5630    43.4350 ho         1 GQ1       0.554000
     25 HO6         35.2570   -25.2280    45.0580 ho         1 GQ1       0.494000
     26 HO1         33.6230   -24.1670    38.5640 ho         1 GQ1       0.503000
     27 O6          35.4020   -24.7110    44.2610 oh         1 GQ1      -0.711000
@<TRIPOS>BOND
     1     1     3 1   
     2     1     5 1   
     3     1     7 1   
     4     1    14 1   
     5     2     4 1   
     6     2    11 1   
     7     2    15 1   
     8     2    16 1   
     9     4     6 1   
    10     4    12 1   
    11     4    17 1   
    12     6     8 1   
    13     6    13 1   
    14     6    18 1   
    15     8     9 1   
    16     8    14 1   
    17     8    19 1   
    18     9    10 1   
    19     9    15 1   
    20     9    20 1   
    21    10    21 1   
    22    10    22 1   
    23    10    27 1   
    24    11    26 1   
    25    12    23 1   
    26    13    24 1   
    27    25    27 1   
@<TRIPOS>SUBSTRUCTURE
     1 GQ1         1 TEMP              0 ****  ****    0 ROOT
