@<TRIPOS>MOLECULE
GQ1
   27    27     1     0     0
SMALL
No Charge or Current Charge


@<TRIPOS>ATOM
      1 SA          33.6060   -20.4480    42.7520 s6         1 GQ1       1.496300
      2 C1          33.0860   -25.6190    40.5910 c6         1 GQ1       0.403300
      3 O1S         34.4100   -20.7170    43.9510 o          1 GQ1      -0.708200
      4 C2          31.9660   -24.9350    41.4800 c6         1 GQ1       0.161300
      5 O2S         32.1550   -20.5580    42.9610 o          1 GQ1      -0.708200
      6 C3          32.1640   -23.4020    41.4850 c6         1 GQ1       0.102300
      7 O3S         34.0270   -19.2700    41.9840 o          1 GQ1      -0.708200
      8 C4          33.5440   -23.0460    42.1580 c6         1 GQ1       0.188300
      9 C5          34.6510   -24.0880    41.7320 c6         1 GQ1       0.178300
     10 C6          35.0290   -25.1370    42.8380 c3         1 GQ1       0.133600
     11 O1          32.7280   -25.6930    39.2250 oh         1 GQ1      -0.694000
     12 O2          30.6070   -25.2720    41.1310 oh         1 GQ1      -0.715000
     13 O3          31.0440   -22.7520    42.1400 oh         1 GQ1      -0.761000
     14 O4          33.9370   -21.7090    41.7560 os         1 GQ1      -0.590700
     15 O5          34.2670   -24.7970    40.5160 os         1 GQ1      -0.505000
     16 H1          33.3310   -26.6190    40.9820 h2         1 GQ1       0.043700
     17 H2          32.1290   -25.2760    42.5120 h1         1 GQ1       0.030700
     18 H3          32.2200   -23.0740    40.4340 h1         1 GQ1       0.094700
     19 H4          33.4420   -23.0900    43.2530 h1         1 GQ1       0.071700
     20 H5          35.5700   -23.5270    41.5110 h1         1 GQ1       0.097700
     21 H61         34.1520   -25.7480    43.0850 h1         1 GQ1       0.018200
     22 H62         35.7860   -25.8120    42.4160 h1         1 GQ1       0.018200
     23 HO2         30.1130   -24.4600    41.4080 ho         1 GQ1       0.514000
     24 HO3         31.3860   -21.8550    42.4510 ho         1 GQ1       0.554000
     25 HO6         35.8210   -25.2610    44.6360 ho         1 GQ1       0.494000
     26 HO1         33.5030   -25.2740    38.7940 ho         1 GQ1       0.503000
     27 O6          35.5390   -24.5310    44.0350 oh         1 GQ1      -0.711000
@<TRIPOS>BOND
     1     1     3 1   
     2     1     5 1   
     3     1     7 1   
     4     1    14 1   
     5     2     4 1   
     6     2    11 1   
     7     2    15 1   
     8     2    16 1   
     9     4     6 1   
    10     4    12 1   
    11     4    17 1   
    12     6     8 1   
    13     6    13 1   
    14     6    18 1   
    15     8     9 1   
    16     8    14 1   
    17     8    19 1   
    18     9    10 1   
    19     9    15 1   
    20     9    20 1   
    21    10    21 1   
    22    10    22 1   
    23    10    27 1   
    24    11    26 1   
    25    12    23 1   
    26    13    24 1   
    27    25    27 1   
@<TRIPOS>SUBSTRUCTURE
     1 GQ1         1 TEMP              0 ****  ****    0 ROOT
