@<TRIPOS>MOLECULE
GQ2
   48    49     1     0     0
SMALL
No Charge or Current Charge


@<TRIPOS>ATOM
      1 SA           3.3850    -2.3370     0.0550 s6         1 GQ2       1.496300
      2 C1A          1.1080     2.8220     0.2070 c6         1 GQ2       0.361300
      3 O1A          0.9890     3.2690    -1.1380 oh         1 GQ2      -0.721000
      4 C1B         -2.3810    -1.3500    -0.7470 c6         1 GQ2       0.361300
      5 O1S          4.4400    -1.9060     0.9810 o          1 GQ2      -0.703200
      6 C2A          2.6060     2.6270     0.6150 c6         1 GQ2       0.103300
      7 O2A          3.3740     3.8340     0.3950 oh         1 GQ2      -0.712000
      8 C2B         -3.6390    -0.9180    -1.5770 c6         1 GQ2       0.122300
      9 O2B         -3.3080    -0.6590    -2.9630 oh         1 GQ2      -0.710000
     10 O2S          3.8460    -3.2260    -1.0210 o          1 GQ2      -0.703200
     11 C3A          3.2290     1.4360    -0.1700 c6         1 GQ2       0.164300
     12 O3A          4.6080     1.2930     0.2260 oh         1 GQ2      -0.676000
     13 C3B         -4.2800     0.3520    -0.9410 c6         1 GQ2       0.136300
     14 O3B         -5.4820     0.7170    -1.6480 oh         1 GQ2      -0.683000
     15 O3S          2.1510    -2.7770     0.7190 o          1 GQ2      -0.703200
     16 C4A          2.3830     0.1290     0.0350 c6         1 GQ2       0.219300
     17 O4A          2.9400    -0.9660    -0.7350 os         1 GQ2      -0.589700
     18 C4B         -4.5810     0.1150     0.5660 c6         1 GQ2       0.146300
     19 O4B         -5.1560     1.3070     1.1330 oh         1 GQ2      -0.720000
     20 C5A          0.9330     0.4660    -0.4510 c6         1 GQ2       0.151300
     21 O5A          0.3920     1.5840     0.3150 os         1 GQ2      -0.484000
     22 C5B         -3.2660    -0.3130     1.2880 c6         1 GQ2       0.169300
     23 O5B         -2.7190    -1.5020     0.6500 os         1 GQ2      -0.460000
     24 C6A         -0.0560    -0.7240    -0.2900 c3         1 GQ2       0.158600
     25 O6A         -1.3250    -0.3810    -0.8910 os         1 GQ2      -0.476000
     26 C6B         -3.4940    -0.6300     2.8030 c3         1 GQ2       0.171600
     27 O6B         -2.3070    -1.0880     3.4790 oh         1 GQ2      -0.695000
     28 H1A          0.6460     3.5610     0.8800 h2         1 GQ2       0.040700
     29 H1B         -2.0300    -2.3190    -1.1350 h2         1 GQ2       0.076700
     30 H2A          2.6220     2.3730     1.6860 h1         1 GQ2       0.052700
     31 HO2A         2.9610     4.2620    -0.3950 ho         1 GQ2       0.492000
     32 H2B         -4.3710    -1.7370    -1.5210 h1         1 GQ2       0.044700
     33 HO2B        -2.4130    -0.2410    -2.9550 ho         1 GQ2       0.510000
     34 H3A          3.1910     1.6840    -1.2420 h1         1 GQ2       0.062700
     35 HO3A         4.9060     2.2160     0.4040 ho         1 GQ2       0.495000
     36 H3B         -3.5450     1.1690    -1.0120 h1         1 GQ2       0.077700
     37 HO3B        -5.2960     0.5030    -2.5920 ho         1 GQ2       0.460000
     38 H4A          2.3570    -0.1230     1.1060 h1         1 GQ2       0.064700
     39 H4B         -5.3000    -0.7140     0.6480 h1         1 GQ2       0.039700
     40 HO4B        -5.7590     1.6480     0.4280 ho         1 GQ2       0.514000
     41 H5A          0.9630     0.7300    -1.5180 h1         1 GQ2       0.066700
     42 H5B         -2.5300     0.5020     1.2210 h1         1 GQ2       0.087700
     43 H6A          0.3640    -1.6080    -0.7850 h1         1 GQ2       0.074700
     44 H6AA        -0.1670    -0.9480     0.7790 h1         1 GQ2       0.074700
     45 H6B         -3.8700     0.2780     3.2930 h1         1 GQ2       0.023200
     46 H6BA        -4.2840    -1.3900     2.8780 h1         1 GQ2       0.023200
     47 HO6B        -2.5740    -1.3270     4.3970 ho         1 GQ2       0.494000
     48 HO1          0.0270     3.2160    -1.3290 ho         1 GQ2       0.504000
@<TRIPOS>BOND
     1     1     5 1   
     2     1    10 1   
     3     1    15 1   
     4     1    17 1   
     5     2     3 1   
     6     2     6 1   
     7     2    21 1   
     8     2    28 1   
     9     3    48 1   
    10     4     8 1   
    11     4    23 1   
    12     4    25 1   
    13     4    29 1   
    14     6     7 1   
    15     6    11 1   
    16     6    30 1   
    17     7    31 1   
    18     8     9 1   
    19     8    13 1   
    20     8    32 1   
    21     9    33 1   
    22    11    12 1   
    23    11    16 1   
    24    11    34 1   
    25    12    35 1   
    26    13    14 1   
    27    13    18 1   
    28    13    36 1   
    29    14    37 1   
    30    16    17 1   
    31    16    20 1   
    32    16    38 1   
    33    18    19 1   
    34    18    22 1   
    35    18    39 1   
    36    19    40 1   
    37    20    21 1   
    38    20    24 1   
    39    20    41 1   
    40    22    23 1   
    41    22    26 1   
    42    22    42 1   
    43    24    25 1   
    44    24    43 1   
    45    24    44 1   
    46    26    27 1   
    47    26    45 1   
    48    26    46 1   
    49    27    47 1   
@<TRIPOS>SUBSTRUCTURE
     1 GQ2         1 TEMP              0 ****  ****    0 ROOT
