@<TRIPOS>MOLECULE
GQ2
   48    49     1     0     0
SMALL
abcg2


@<TRIPOS>ATOM
      1 SA           3.3840    -2.2340     0.0200 s6         1 GQ2       1.496300
      2 C1A          1.0650     2.8050     0.0260 c6         1 GQ2       0.361300
      3 O1A          1.0410     3.2000    -1.3050 oh         1 GQ2      -0.721000
      4 C1B         -2.2880    -1.3090    -0.6280 c6         1 GQ2       0.361300
      5 O1S          4.3670    -1.7920     1.0070 o          1 GQ2      -0.703200
      6 C2A          2.5210     2.6390     0.4650 c6         1 GQ2       0.103300
      7 O2A          3.3010     3.7710     0.1750 oh         1 GQ2      -0.712000
      8 C2B         -3.4750    -0.9080    -1.5060 c6         1 GQ2       0.122300
      9 O2B         -3.1020    -0.6530    -2.8360 oh         1 GQ2      -0.710000
     10 O2S          3.9390    -2.9650    -1.1170 o          1 GQ2      -0.703200
     11 C3A          3.1650     1.4390    -0.2260 c6         1 GQ2       0.164300
     12 O3A          4.4620     1.2140     0.2600 oh         1 GQ2      -0.676000
     13 C3B         -4.1290     0.3490    -0.9470 c6         1 GQ2       0.136300
     14 O3B         -5.3190     0.6690    -1.6330 oh         1 GQ2      -0.683000
     15 O3S          2.1960    -2.8470     0.6210 o          1 GQ2      -0.703200
     16 C4A          2.3190     0.1960     0.0210 c6         1 GQ2       0.219300
     17 O4A          2.8490    -0.8750    -0.7470 os         1 GQ2      -0.589700
     18 C4B         -4.4950     0.1390     0.5180 c6         1 GQ2       0.146300
     19 O4B         -4.9630     1.3280     1.1050 oh         1 GQ2      -0.720000
     20 C5A          0.8810     0.4750    -0.4320 c6         1 GQ2       0.151300
     21 O5A          0.3730     1.6060     0.2530 os         1 GQ2      -0.484000
     22 C5B         -3.2710    -0.3290     1.3060 c6         1 GQ2       0.169300
     23 O5B         -2.7150    -1.4820     0.6960 os         1 GQ2      -0.460000
     24 C6A         -0.0700    -0.6670    -0.1530 c3         1 GQ2       0.158600
     25 O6A         -1.3070    -0.3390    -0.7510 os         1 GQ2      -0.476000
     26 C6B         -3.6290    -0.7050     2.7280 c3         1 GQ2       0.171600
     27 O6B         -2.4450    -1.0020     3.4300 oh         1 GQ2      -0.695000
     28 H1A          0.5620     3.5390     0.6670 h2         1 GQ2       0.040700
     29 H1B         -1.9030    -2.2950    -0.9300 h2         1 GQ2       0.076700
     30 H2A          2.5060     2.4380     1.5450 h1         1 GQ2       0.052700
     31 HO2A         3.1360     4.4430     0.8430 ho         1 GQ2       0.492000
     32 H2B         -4.2030    -1.7290    -1.4500 h1         1 GQ2       0.044700
     33 HO2B        -2.9380    -1.4920    -3.2780 ho         1 GQ2       0.510000
     34 H3A          3.1830     1.6240    -1.3110 h1         1 GQ2       0.062700
     35 HO3A         4.9780     2.0080     0.0850 ho         1 GQ2       0.495000
     36 H3B         -3.4130     1.1820    -1.0060 h1         1 GQ2       0.077700
     37 HO3B        -5.0870     0.9790    -2.5130 ho         1 GQ2       0.460000
     38 H4A          2.3260    -0.0380     1.0930 h1         1 GQ2       0.064700
     39 H4B         -5.2620    -0.6520     0.5700 h1         1 GQ2       0.039700
     40 HO4B        -5.7330     1.6230     0.6090 ho         1 GQ2       0.514000
     41 H5A          0.8910     0.6540    -1.5160 h1         1 GQ2       0.066700
     42 H5B         -2.5350     0.4880     1.3320 h1         1 GQ2       0.087700
     43 H6A          0.3230    -1.5960    -0.5780 h1         1 GQ2       0.074700
     44 H6AA        -0.1720    -0.8140     0.9280 h1         1 GQ2       0.074700
     45 H6B         -4.1680     0.1330     3.1830 h1         1 GQ2       0.023200
     46 H6BA        -4.3180    -1.5600     2.7080 h1         1 GQ2       0.023200
     47 HO6B        -2.6850    -1.2170     4.3360 ho         1 GQ2       0.494000
     48 HO1          0.1460     3.4710    -1.5360 ho         1 GQ2       0.504000
@<TRIPOS>BOND
     1     1     5 1   
     2     1    10 1   
     3     1    15 1   
     4     1    17 1   
     5     2     3 1   
     6     2     6 1   
     7     2    21 1   
     8     2    28 1   
     9     3    48 1   
    10     4     8 1   
    11     4    23 1   
    12     4    25 1   
    13     4    29 1   
    14     6     7 1   
    15     6    11 1   
    16     6    30 1   
    17     7    31 1   
    18     8     9 1   
    19     8    13 1   
    20     8    32 1   
    21     9    33 1   
    22    11    12 1   
    23    11    16 1   
    24    11    34 1   
    25    12    35 1   
    26    13    14 1   
    27    13    18 1   
    28    13    36 1   
    29    14    37 1   
    30    16    17 1   
    31    16    20 1   
    32    16    38 1   
    33    18    19 1   
    34    18    22 1   
    35    18    39 1   
    36    19    40 1   
    37    20    21 1   
    38    20    24 1   
    39    20    41 1   
    40    22    23 1   
    41    22    26 1   
    42    22    42 1   
    43    24    25 1   
    44    24    43 1   
    45    24    44 1   
    46    26    27 1   
    47    26    45 1   
    48    26    46 1   
    49    27    47 1   
@<TRIPOS>SUBSTRUCTURE
     1 GQ2         1 TEMP              0 ****  ****    0 ROOT
