@<TRIPOS>MOLECULE
GQ3
   38    40     1     0     0
SMALL
bcc


@<TRIPOS>ATOM
      1 C15         -4.9300    32.4360    24.6140 c2         1 GQ3       0.331300
      2 C17         -4.5920    34.0970    23.0250 c5         1 GQ3       0.080100
      3 C20         -5.3180    30.0030    24.6370 c3         1 GQ3      -0.084767
      4 C21         -5.6260    31.3200    26.7410 c3         1 GQ3      -0.084767
      5 C02         -3.2990    35.6270    25.6460 cc         1 GQ3       0.429700
      6 C04         -1.8050    34.1850    24.9690 ca         1 GQ3       0.473800
      7 C06         -0.1190    32.7480    24.9990 ca         1 GQ3       0.941900
      8 C08         -0.6980    33.7380    26.9730 ca         1 GQ3       0.642300
      9 C09         -1.7050    34.4450    26.3410 ca         1 GQ3      -0.209200
     10 C12         -3.3930    35.0200    23.2050 c3         1 GQ3       0.039300
     11 C16         -4.3090    32.6180    23.2600 c5         1 GQ3      -0.173700
     12 C18         -4.8090    31.1950    25.4560 c3         1 GQ3      -0.066300
     13 C19         -3.3360    30.9720    25.8210 c3         1 GQ3      -0.084767
     14 N01         -2.6510    35.3550    26.7360 nd         1 GQ3      -0.519100
     15 N03         -2.8390    34.9560    24.5400 na         1 GQ3      -0.260000
     16 N05         -1.0470    33.3660    24.2670 nb         1 GQ3      -0.800000
     17 N07          0.0770    32.9100    26.3270 nb         1 GQ3      -0.788000
     18 N14         -5.6220    33.4360    24.9750 n2         1 GQ3      -0.365200
     19 O13         -5.5810    34.4260    24.0140 os         1 GQ3      -0.172300
     20 CL1         -0.4420    33.9310    28.6660 cl         1 GQ3      -0.131000
     21 H1          -5.2570    29.0910    25.2340 hc         1 GQ3       0.041700
     22 H2          -6.3590    30.1390    24.3400 hc         1 GQ3       0.041700
     23 H3          -4.7250    29.8450    23.7340 hc         1 GQ3       0.041700
     24 H4          -5.2850    32.1560    27.3530 hc         1 GQ3       0.041700
     25 H5          -6.6880    31.4610    26.5370 hc         1 GQ3       0.041700
     26 H6          -5.5170    30.4090    27.3320 hc         1 GQ3       0.041700
     27 H7          -4.1210    36.3220    25.5680 h5         1 GQ3       0.079800
     28 H8          -2.6120    34.7570    22.4910 h1         1 GQ3       0.076700
     29 H9          -3.6830    36.0520    23.0050 h1         1 GQ3       0.076700
     30 H10         -4.8110    31.9830    22.5260 hc         1 GQ3       0.084200
     31 H11         -2.9540    31.7940    26.4290 hc         1 GQ3       0.041700
     32 H12         -3.2390    30.0550    26.4040 hc         1 GQ3       0.041700
     33 H13         -2.7020    30.8730    24.9400 hc         1 GQ3       0.041700
     34 H14          0.6580    31.7760    23.3840 hn         1 GQ3       0.450800
     35 H15          1.4620    31.4660    24.8790 hn         1 GQ3       0.450800
     36 H16         -3.2490    32.3640    23.2280 hc         1 GQ3       0.084200
     37 H17         -5.0180    34.2870    22.0380 h1         1 GQ3       0.083700
     38 N10          0.6870    31.8710    24.3840 nv         1 GQ3      -0.960500
@<TRIPOS>BOND
     1     1    11 1   
     2     1    12 1   
     3     1    18 2   
     4     2    10 1   
     5     2    11 1   
     6     2    19 1   
     7     2    37 1   
     8     3    12 1   
     9     3    21 1   
    10     3    22 1   
    11     3    23 1   
    12     4    12 1   
    13     4    24 1   
    14     4    25 1   
    15     4    26 1   
    16     5    14 2   
    17     5    15 1   
    18     5    27 1   
    19     6     9 ar  
    20     6    15 1   
    21     6    16 ar  
    22     7    16 ar  
    23     7    17 ar  
    24     7    38 1   
    25     8     9 ar  
    26     8    17 ar  
    27     8    20 1   
    28     9    14 1   
    29    10    15 1   
    30    10    28 1   
    31    10    29 1   
    32    11    30 1   
    33    11    36 1   
    34    12    13 1   
    35    13    31 1   
    36    13    32 1   
    37    13    33 1   
    38    18    19 1   
    39    34    38 1   
    40    35    38 1   
@<TRIPOS>SUBSTRUCTURE
     1 GQ3         1 TEMP              0 ****  ****    0 ROOT
