@<TRIPOS>MOLECULE
GQ3
   38    40     1     0     0
SMALL
No Charge or Current Charge


@<TRIPOS>ATOM
      1 C15         -5.1170    32.5020    24.6460 c2         1 GQ3       0.331300
      2 C17         -4.6400    34.1280    23.0210 c5         1 GQ3       0.103300
      3 C20         -4.9970    29.9610    24.6710 c3         1 GQ3      -0.084767
      4 C21         -6.1050    31.1640    26.5860 c3         1 GQ3      -0.084767
      5 C02         -3.1920    35.5400    25.7400 cc         1 GQ3       0.429700
      6 C04         -1.6770    34.1350    24.8730 ca         1 GQ3       0.145500
      7 C06          0.0790    32.6960    24.8140 ca         1 GQ3       0.415900
      8 C08         -0.4510    33.5860    26.8490 ca         1 GQ3       0.314000
      9 C09         -1.4970    34.2980    26.2260 ca         1 GQ3      -0.078600
     10 C12         -3.3580    34.9820    23.2220 c3         1 GQ3       0.068600
     11 C16         -4.4610    32.6140    23.2980 c5         1 GQ3      -0.173700
     12 C18         -4.9620    31.2530    25.5340 c3         1 GQ3      -0.066300
     13 C19         -3.6030    31.3310    26.2780 c3         1 GQ3      -0.084767
     14 N01         -2.4290    35.1760    26.7890 nd         1 GQ3      -0.519100
     15 N03         -2.7520    34.9190    24.5690 na         1 GQ3      -0.289300
     16 N05         -0.8910    33.3310    24.1320 nb         1 GQ3      -0.274000
     17 N07          0.3500    32.7710    26.1290 nb         1 GQ3      -0.262000
     18 N14         -5.8010    33.5380    24.9740 n2         1 GQ3      -0.266700
     19 O13         -5.6510    34.5410    23.9830 os         1 GQ3      -0.294000
     20 Cl1         -0.1410    33.7100    28.5770 cl         1 GQ3      -0.131000
     21 H1          -4.9350    29.0660    25.3020 hc         1 GQ3       0.041700
     22 H2          -5.9290    29.9040    24.0950 hc         1 GQ3       0.041700
     23 H3          -4.1580    29.9260    23.9660 hc         1 GQ3       0.041700
     24 H4          -6.0910    32.0260    27.2640 hc         1 GQ3       0.041700
     25 H5          -7.0860    31.1320    26.0960 hc         1 GQ3       0.041700
     26 H6          -6.0060    30.2600    27.1990 hc         1 GQ3       0.041700
     27 H7          -4.0450    36.2080    25.7630 h5         1 GQ3       0.079800
     28 H8          -2.6120    34.6700    22.4800 h1         1 GQ3       0.076700
     29 H9          -3.6040    36.0290    23.0050 h1         1 GQ3       0.076700
     30 H10         -4.9830    32.0020    22.5550 hc         1 GQ3       0.084200
     31 H11         -3.5510    32.2330    26.9010 hc         1 GQ3       0.041700
     32 H12         -3.4610    30.4610    26.9310 hc         1 GQ3       0.041700
     33 H13         -2.7670    31.3590    25.5700 hc         1 GQ3       0.041700
     34 H14          0.8610    31.9730    23.0730 hn         1 GQ3       0.506000
     35 H15          1.7560    31.5680    24.4970 hn         1 GQ3       0.506000
     36 H16         -3.4120    32.3020    23.3150 hc         1 GQ3       0.084200
     37 H17         -5.0190    34.3080    22.0050 h1         1 GQ3       0.083700
     38 N10          0.8800    31.8830    24.0860 nv         1 GQ3      -1.070900
@<TRIPOS>BOND
     1     1    11 1   
     2     1    12 1   
     3     1    18 2   
     4     2    10 1   
     5     2    11 1   
     6     2    19 1   
     7     2    37 1   
     8     3    12 1   
     9     3    21 1   
    10     3    22 1   
    11     3    23 1   
    12     4    12 1   
    13     4    24 1   
    14     4    25 1   
    15     4    26 1   
    16     5    14 2   
    17     5    15 1   
    18     5    27 1   
    19     6     9 ar  
    20     6    15 1   
    21     6    16 ar  
    22     7    16 ar  
    23     7    17 ar  
    24     7    38 1   
    25     8     9 ar  
    26     8    17 ar  
    27     8    20 1   
    28     9    14 1   
    29    10    15 1   
    30    10    28 1   
    31    10    29 1   
    32    11    30 1   
    33    11    36 1   
    34    12    13 1   
    35    13    31 1   
    36    13    32 1   
    37    13    33 1   
    38    18    19 1   
    39    34    38 1   
    40    35    38 1   
@<TRIPOS>SUBSTRUCTURE
     1 GQ3         1 TEMP              0 ****  ****    0 ROOT
