@<TRIPOS>MOLECULE
GQ4
   90    93     1     0     0
SMALL
bcc


@<TRIPOS>ATOM
      1 SA           3.8480    -2.4140    -1.7900 s6         1 GQ4       1.501300
      2 C1A          3.8840     1.5050     2.1300 c6         1 GQ4       0.316900
      3 O1A          4.9120     2.3660     1.7680 oh         1 GQ4      -0.599800
      4 C1B          0.1620     2.1440    -1.3720 c6         1 GQ4       0.315900
      5 C1C         -1.0430    -1.7550     1.7580 c6         1 GQ4       0.305900
      6 C1D         -4.9040    -0.7720    -1.5780 c6         1 GQ4       0.321900
      7 O1D         -3.5460    -0.9710    -1.4110 os         1 GQ4      -0.423600
      8 O1S          3.7630    -3.3960    -0.6940 o          1 GQ4      -0.702200
      9 C2A          4.4710     0.1260     2.4180 c6         1 GQ4       0.077100
     10 O2A          5.5190     0.1680     3.3530 oh         1 GQ4      -0.590800
     11 C2B         -0.3510     3.5860    -1.3070 c6         1 GQ4       0.099100
     12 O2B          0.4390     4.4830    -2.0440 oh         1 GQ4      -0.588800
     13 C2C          0.0170    -2.8640     1.6730 c6         1 GQ4       0.113100
     14 O2C          1.1770    -2.5620     2.4020 oh         1 GQ4      -0.559800
     15 C2D         -5.0850     0.6740    -2.0470 c6         1 GQ4       0.099100
     16 O2D         -4.3860     0.9470    -3.2350 oh         1 GQ4      -0.579800
     17 O2S          4.8970    -2.6980    -2.7610 o          1 GQ4      -0.702200
     18 C3A          5.0080    -0.5010     1.1350 c6         1 GQ4       0.144100
     19 O3A          5.4750    -1.8030     1.3630 oh         1 GQ4      -0.555800
     20 C3B         -0.4050     4.0760     0.1380 c6         1 GQ4       0.110100
     21 O3B         -1.0560     5.3220     0.2340 oh         1 GQ4      -0.618800
     22 C3C          0.4130    -3.1120     0.2220 c6         1 GQ4       0.129100
     23 O3C          1.2680    -4.2230     0.1080 oh         1 GQ4      -0.641800
     24 C3D         -4.5750     1.6080    -0.9580 c6         1 GQ4       0.109100
     25 O3D         -4.8140     2.9650    -1.2690 oh         1 GQ4      -0.619800
     26 O3S          2.5440    -2.0840    -2.3650 o          1 GQ4      -0.702200
     27 C4A          3.8870    -0.5490     0.1080 c6         1 GQ4       0.186100
     28 O4A          4.4200    -1.0300    -1.1210 os         1 GQ4      -0.566500
     29 C4B         -1.1760     3.0900     1.0130 c6         1 GQ4       0.130100
     30 O4B         -1.1110     3.4460     2.3720 oh         1 GQ4      -0.593800
     31 C4C         -0.8320    -3.3710    -0.6240 c6         1 GQ4       0.126100
     32 O4C         -0.5040    -3.5020    -1.9850 oh         1 GQ4      -0.601800
     33 C4D         -5.3120     1.3170     0.3440 c6         1 GQ4       0.124100
     34 O4D         -4.7610     2.0360     1.4220 oh         1 GQ4      -0.595800
     35 C5A          3.3110     0.8590    -0.1010 c6         1 GQ4       0.131100
     36 O5A          2.8950     1.3890     1.1430 os         1 GQ4      -0.437600
     37 C5B         -0.5510     1.7110     0.8460 c6         1 GQ4       0.132100
     38 C5C         -1.7780    -2.1890    -0.4600 c6         1 GQ4       0.125100
     39 C5D         -5.2490    -0.1700     0.7040 c6         1 GQ4       0.148100
     40 O5D         -5.6340    -0.9770    -0.3990 os         1 GQ4      -0.425600
     41 C6A          2.0860     0.8290    -0.9990 c3         1 GQ4       0.128400
     42 C6B         -1.2360     0.6050     1.6140 c3         1 GQ4       0.150400
     43 O6B          1.5130     2.1240    -1.0360 os         1 GQ4      -0.427600
     44 C6C         -3.0790    -2.2930    -1.2320 c3         1 GQ4       0.151400
     45 O6C         -0.4370    -0.5490     1.4490 os         1 GQ4      -0.412600
     46 C6D         -6.2000    -0.4860     1.8400 c3         1 GQ4       0.146400
     47 O6D         -6.0280    -1.8280     2.2280 oh         1 GQ4      -0.578800
     48 O5B         -0.6160     1.3510    -0.5250 os         1 GQ4      -0.414600
     49 O5C         -2.1180    -2.0510     0.9120 os         1 GQ4      -0.439600
     50 H1A          3.3480     1.8770     3.0110 h2         1 GQ4       0.044700
     51 H1B          0.0000     1.7280    -2.3770 h2         1 GQ4       0.075700
     52 H1C         -1.4820    -1.7270     2.7670 h2         1 GQ4       0.046700
     53 H1D         -5.3340    -1.4750    -2.3060 h2         1 GQ4       0.061700
     54 H2A          3.6430    -0.5020     2.7790 h1         1 GQ4       0.063700
     55 HO2A         5.1450     0.1790     4.2390 ho         1 GQ4       0.395000
     56 H2B         -1.3830     3.5600    -1.6900 h1         1 GQ4       0.041700
     57 HO2B         0.2400     4.3740    -2.9790 ho         1 GQ4       0.408000
     58 H2C         -0.4630    -3.7780     2.0540 h1         1 GQ4       0.042700
     59 HO2C         0.9560    -2.5400     3.3380 ho         1 GQ4       0.387000
     60 H2D         -6.1630     0.8440    -2.1760 h1         1 GQ4       0.043700
     61 HO2D        -4.9160     0.6440    -3.9780 ho         1 GQ4       0.404000
     62 H3A          5.8130     0.1370     0.7370 h1         1 GQ4       0.061700
     63 HO3A         6.1390    -1.7490     2.0590 ho         1 GQ4       0.398000
     64 H3B          0.6220     4.1440     0.5270 h1         1 GQ4       0.074700
     65 HO3B        -0.4850     5.9940    -0.1510 ho         1 GQ4       0.418000
     66 H3C          0.8980    -2.2080    -0.1730 h1         1 GQ4       0.077700
     67 HO3C         2.1690    -3.9140    -0.1000 ho         1 GQ4       0.486000
     68 H3D         -3.5010     1.4360    -0.8070 h1         1 GQ4       0.093700
     69 HO3D        -4.2700     3.2040    -2.0260 ho         1 GQ4       0.423000
     70 H4A          3.0920    -1.2060     0.4870 h1         1 GQ4       0.070700
     71 H4B         -2.2210     3.0520     0.6670 h1         1 GQ4       0.046700
     72 HO4B        -1.4720     4.3330     2.4680 ho         1 GQ4       0.413000
     73 H4C         -1.3250    -4.2860    -0.2530 h1         1 GQ4       0.035700
     74 HO4C         0.3820    -3.8780    -2.0410 ho         1 GQ4       0.444000
     75 H4D         -6.3700     1.5890     0.1910 h1         1 GQ4       0.035700
     76 HO4D        -4.8010     2.9740     1.2080 ho         1 GQ4       0.420000
     77 H5A          4.0840     1.4970    -0.5520 h1         1 GQ4       0.064700
     78 H5B          0.4910     1.7600     1.1840 h1         1 GQ4       0.095700
     79 H5C         -1.2550    -1.2940    -0.8200 h1         1 GQ4       0.092700
     80 H5D         -4.2280    -0.4170     1.0190 h1         1 GQ4       0.095700
     81 H6A          2.3700     0.5060    -2.0050 h1         1 GQ4       0.075200
     82 H6AA         1.3780     0.0980    -0.5990 h1         1 GQ4       0.075200
     83 H6B         -1.3130     0.8700     2.6750 h1         1 GQ4       0.045200
     84 H6BA        -2.2520     0.4630     1.2310 h1         1 GQ4       0.045200
     85 H6C         -3.7920    -2.9120    -0.6770 h1         1 GQ4       0.052200
     86 H6CA        -2.9150    -2.7640    -2.2080 h1         1 GQ4       0.052200
     87 H6D         -5.9890     0.2030     2.6660 h1         1 GQ4       0.025200
     88 H6DA        -7.2290    -0.2860     1.5080 h1         1 GQ4       0.025200
     89 HO6D        -6.6210    -1.9990     2.9640 ho         1 GQ4       0.394000
     90 HO1          4.5770     3.2690     1.7640 ho         1 GQ4       0.404000
@<TRIPOS>BOND
     1     1     8 1   
     2     1    17 1   
     3     1    26 1   
     4     1    28 1   
     5     2     3 1   
     6     2     9 1   
     7     2    36 1   
     8     2    50 1   
     9     3    90 1   
    10     4    11 1   
    11     4    43 1   
    12     4    48 1   
    13     4    51 1   
    14     5    13 1   
    15     5    45 1   
    16     5    49 1   
    17     5    52 1   
    18     6     7 1   
    19     6    15 1   
    20     6    40 1   
    21     6    53 1   
    22     7    44 1   
    23     9    10 1   
    24     9    18 1   
    25     9    54 1   
    26    10    55 1   
    27    11    12 1   
    28    11    20 1   
    29    11    56 1   
    30    12    57 1   
    31    13    14 1   
    32    13    22 1   
    33    13    58 1   
    34    14    59 1   
    35    15    16 1   
    36    15    24 1   
    37    15    60 1   
    38    16    61 1   
    39    18    19 1   
    40    18    27 1   
    41    18    62 1   
    42    19    63 1   
    43    20    21 1   
    44    20    29 1   
    45    20    64 1   
    46    21    65 1   
    47    22    23 1   
    48    22    31 1   
    49    22    66 1   
    50    23    67 1   
    51    24    25 1   
    52    24    33 1   
    53    24    68 1   
    54    25    69 1   
    55    27    28 1   
    56    27    35 1   
    57    27    70 1   
    58    29    30 1   
    59    29    37 1   
    60    29    71 1   
    61    30    72 1   
    62    31    32 1   
    63    31    38 1   
    64    31    73 1   
    65    32    74 1   
    66    33    34 1   
    67    33    39 1   
    68    33    75 1   
    69    34    76 1   
    70    35    36 1   
    71    35    41 1   
    72    35    77 1   
    73    37    42 1   
    74    37    48 1   
    75    37    78 1   
    76    38    44 1   
    77    38    49 1   
    78    38    79 1   
    79    39    40 1   
    80    39    46 1   
    81    39    80 1   
    82    41    43 1   
    83    41    81 1   
    84    41    82 1   
    85    42    45 1   
    86    42    83 1   
    87    42    84 1   
    88    44    85 1   
    89    44    86 1   
    90    46    47 1   
    91    46    87 1   
    92    46    88 1   
    93    47    89 1   
@<TRIPOS>SUBSTRUCTURE
     1 GQ4         1 TEMP              0 ****  ****    0 ROOT
