@<TRIPOS>MOLECULE
GQ4
   90    93     1     0     0
SMALL
No Charge or Current Charge


@<TRIPOS>ATOM
      1 SA           3.9420    -2.5540    -1.7270 s6         1 GQ4       1.501300
      2 C1A          4.4270     1.3210     2.3530 c6         1 GQ4       0.363300
      3 O1A          5.5140     2.1660     1.9960 oh         1 GQ4      -0.722000
      4 C1B          1.1130     2.6400    -1.6880 c6         1 GQ4       0.362300
      5 C1C         -0.9330    -1.2230     1.6430 c6         1 GQ4       0.352300
      6 C1D         -5.4620    -0.8040    -1.5570 c6         1 GQ4       0.368300
      7 O1D         -4.0960    -0.8050    -1.1030 os         1 GQ4      -0.470000
      8 O1S          3.4130    -3.3430    -0.6040 o          1 GQ4      -0.702200
      9 C2A          4.9060    -0.1430     2.6230 c6         1 GQ4       0.100300
     10 O2A          5.9490    -0.1820     3.6270 oh         1 GQ4      -0.713000
     11 C2B          0.7690     4.1710    -1.6400 c6         1 GQ4       0.122300
     12 O2B          1.8290     4.9790    -2.2050 oh         1 GQ4      -0.711000
     13 C2C          0.0160    -2.4800     1.6330 c6         1 GQ4       0.136300
     14 O2C          1.2970    -2.2050     2.2580 oh         1 GQ4      -0.682000
     15 C2D         -5.9800     0.6670    -1.7180 c6         1 GQ4       0.122300
     16 O2D         -5.1140     1.4550    -2.5690 oh         1 GQ4      -0.702000
     17 O2S          4.9540    -3.2450    -2.5370 o          1 GQ4      -0.702200
     18 C3A          5.4020    -0.7980     1.3010 c6         1 GQ4       0.167300
     19 O3A          5.8400    -2.1430     1.5820 oh         1 GQ4      -0.678000
     20 C3B          0.4850     4.6170    -0.1700 c6         1 GQ4       0.133300
     21 O3B          0.0590     5.9940    -0.1360 oh         1 GQ4      -0.681000
     22 C3C          0.2130    -2.9680     0.1600 c6         1 GQ4       0.152300
     23 O3C          1.0100    -4.1730     0.0880 oh         1 GQ4      -0.704000
     24 C3D         -6.0940     1.3390    -0.3170 c6         1 GQ4       0.132300
     25 O3D         -6.6400     2.6690    -0.4400 oh         1 GQ4      -0.682000
     26 O3S          2.9030    -1.8770    -2.5100 o          1 GQ4      -0.702200
     27 C4A          4.2900    -0.7270     0.1990 c6         1 GQ4       0.209300
     28 O4A          4.7720    -1.3120    -1.0380 os         1 GQ4      -0.589700
     29 C4B         -0.5760     3.6950     0.5040 c6         1 GQ4       0.153300
     30 O4B         -0.7800     4.1120     1.8660 oh         1 GQ4      -0.716000
     31 C4C         -1.1710    -3.2150    -0.5110 c6         1 GQ4       0.149300
     32 O4C         -0.9800    -3.6610    -1.8650 oh         1 GQ4      -0.724000
     33 C4D         -6.9690     0.4740     0.6340 c6         1 GQ4       0.147300
     34 O4D         -7.0450     1.1090     1.9230 oh         1 GQ4      -0.718000
     35 C5A          3.9420     0.7860     0.0070 c6         1 GQ4       0.154300
     36 O5A          3.4840     1.3520     1.2720 os         1 GQ4      -0.484000
     37 C5B         -0.0700     2.2290     0.4020 c6         1 GQ4       0.155300
     38 C5C         -2.0200    -1.9120    -0.4350 c6         1 GQ4       0.148300
     39 C5D         -6.3720    -0.9650     0.7110 c6         1 GQ4       0.171300
     40 O5D         -6.2890    -1.5360    -0.6260 os         1 GQ4      -0.472000
     41 C6A          2.8000     0.9860    -1.0320 c3         1 GQ4       0.151600
     42 C6B         -1.0010     1.1650     1.0450 c3         1 GQ4       0.173600
     43 O6B          2.3920     2.3750    -1.0740 os         1 GQ4      -0.474000
     44 C6C         -3.4470    -2.0910    -1.0300 c3         1 GQ4       0.174600
     45 O6C         -0.2970    -0.0930     1.0240 os         1 GQ4      -0.459000
     46 C6D         -7.2340    -1.9200     1.6020 c3         1 GQ4       0.169600
     47 O6D         -6.7390    -3.2740     1.6400 oh         1 GQ4      -0.701000
     48 O5B          0.0940     1.8840    -1.0000 os         1 GQ4      -0.461000
     49 O5C         -2.1700    -1.5130     0.9550 os         1 GQ4      -0.486000
     50 H1A          3.9420     1.7130     3.2600 h2         1 GQ4       0.044700
     51 H1B          1.1470     2.3190    -2.7400 h2         1 GQ4       0.075700
     52 H1C         -1.1630    -0.9690     2.6880 h2         1 GQ4       0.046700
     53 H1D         -5.5100    -1.2970    -2.5400 h2         1 GQ4       0.061700
     54 H2A          4.0330    -0.7120     2.9760 h1         1 GQ4       0.063700
     55 HO2A         6.4560     0.6580     3.5060 ho         1 GQ4       0.494000
     56 H2B         -0.1520     4.3170    -2.2240 h1         1 GQ4       0.041700
     57 HO2B         2.6730     4.5370    -1.9480 ho         1 GQ4       0.507000
     58 H2C         -0.4950    -3.2810     2.1880 h1         1 GQ4       0.042700
     59 HO2C         1.1210    -2.0200     3.2080 ho         1 GQ4       0.486000
     60 H2D         -6.9860     0.6190    -2.1600 h1         1 GQ4       0.043700
     61 HO2D        -4.1970     1.1370    -2.3930 ho         1 GQ4       0.503000
     62 H3A          6.2600    -0.2120     0.9370 h1         1 GQ4       0.061700
     63 HO3A         6.2120    -2.0910     2.4940 ho         1 GQ4       0.497000
     64 H3B          1.4240     4.5090     0.3940 h1         1 GQ4       0.074700
     65 HO3B         0.5860     6.4430    -0.8380 ho         1 GQ4       0.457000
     66 H3C          0.7130    -2.1590    -0.3950 h1         1 GQ4       0.077700
     67 HO3C         1.9590    -3.8650    -0.0350 ho         1 GQ4       0.525000
     68 H3D         -5.0800     1.3890     0.1130 h1         1 GQ4       0.093700
     69 HO3D        -6.2770     3.0160    -1.2890 ho         1 GQ4       0.462000
     70 H4A          3.3910    -1.2450     0.5620 h1         1 GQ4       0.070700
     71 H4B         -1.5200     3.7750    -0.0560 h1         1 GQ4       0.046700
     72 HO4B        -0.7630     5.0990     1.8280 ho         1 GQ4       0.512000
     73 H4C         -1.6960    -3.9960     0.0600 h1         1 GQ4       0.035700
     74 HO4C        -0.2140    -4.2830    -1.8130 ho         1 GQ4       0.543000
     75 H4D         -7.9790     0.4020     0.2020 h1         1 GQ4       0.035700
     76 HO4D        -7.1320     2.0720     1.7190 ho         1 GQ4       0.519000
     77 H5A          4.8270     1.3320    -0.3470 h1         1 GQ4       0.064700
     78 H5B          0.8990     2.1530     0.9150 h1         1 GQ4       0.095700
     79 H5C         -1.5140    -1.1130    -0.9960 h1         1 GQ4       0.092700
     80 H5D         -5.3630    -0.9180     1.1470 h1         1 GQ4       0.095700
     81 H6A          3.1520     0.6640    -2.0200 h1         1 GQ4       0.075200
     82 H6AA         1.9690     0.3300    -0.7400 h1         1 GQ4       0.075200
     83 H6B         -1.2290     1.4600     2.0770 h1         1 GQ4       0.045200
     84 H6BA        -1.9410     1.1100     0.4800 h1         1 GQ4       0.045200
     85 H6C         -4.0090    -2.7880    -0.3940 h1         1 GQ4       0.052200
     86 H6CA        -3.3680    -2.5310    -2.0330 h1         1 GQ4       0.052200
     87 H6D         -7.2640    -1.5090     2.6200 h1         1 GQ4       0.025200
     88 H6DA        -8.2630    -1.9090     1.2170 h1         1 GQ4       0.025200
     89 HO6D        -7.3870    -3.8010     2.1610 ho         1 GQ4       0.493000
     90 HO1          5.0880     3.0010     1.7010 ho         1 GQ4       0.503000
@<TRIPOS>BOND
     1     1     8 1   
     2     1    17 1   
     3     1    26 1   
     4     1    28 1   
     5     2     3 1   
     6     2     9 1   
     7     2    36 1   
     8     2    50 1   
     9     3    90 1   
    10     4    11 1   
    11     4    43 1   
    12     4    48 1   
    13     4    51 1   
    14     5    13 1   
    15     5    45 1   
    16     5    49 1   
    17     5    52 1   
    18     6     7 1   
    19     6    15 1   
    20     6    40 1   
    21     6    53 1   
    22     7    44 1   
    23     9    10 1   
    24     9    18 1   
    25     9    54 1   
    26    10    55 1   
    27    11    12 1   
    28    11    20 1   
    29    11    56 1   
    30    12    57 1   
    31    13    14 1   
    32    13    22 1   
    33    13    58 1   
    34    14    59 1   
    35    15    16 1   
    36    15    24 1   
    37    15    60 1   
    38    16    61 1   
    39    18    19 1   
    40    18    27 1   
    41    18    62 1   
    42    19    63 1   
    43    20    21 1   
    44    20    29 1   
    45    20    64 1   
    46    21    65 1   
    47    22    23 1   
    48    22    31 1   
    49    22    66 1   
    50    23    67 1   
    51    24    25 1   
    52    24    33 1   
    53    24    68 1   
    54    25    69 1   
    55    27    28 1   
    56    27    35 1   
    57    27    70 1   
    58    29    30 1   
    59    29    37 1   
    60    29    71 1   
    61    30    72 1   
    62    31    32 1   
    63    31    38 1   
    64    31    73 1   
    65    32    74 1   
    66    33    34 1   
    67    33    39 1   
    68    33    75 1   
    69    34    76 1   
    70    35    36 1   
    71    35    41 1   
    72    35    77 1   
    73    37    42 1   
    74    37    48 1   
    75    37    78 1   
    76    38    44 1   
    77    38    49 1   
    78    38    79 1   
    79    39    40 1   
    80    39    46 1   
    81    39    80 1   
    82    41    43 1   
    83    41    81 1   
    84    41    82 1   
    85    42    45 1   
    86    42    83 1   
    87    42    84 1   
    88    44    85 1   
    89    44    86 1   
    90    46    47 1   
    91    46    87 1   
    92    46    88 1   
    93    47    89 1   
@<TRIPOS>SUBSTRUCTURE
     1 GQ4         1 TEMP              0 ****  ****    0 ROOT
