@<TRIPOS>MOLECULE
GQ5
   53    57     1     0     0
SMALL
No Charge or Current Charge


@<TRIPOS>ATOM
      1 C7          -2.1830    -0.5230     0.7430 ca         1 GQ5      -0.064200
      2 C9           0.1730    -1.0590     0.7560 ca         1 GQ5      -0.014000
      3 N1          -3.3330     0.1880     0.5550 na         1 GQ5      -0.299600
      4 C2          -7.6970     1.8040    -1.4660 c5         1 GQ5      -0.084400
      5 N2           1.5030    -0.6420     0.4720 ns         1 GQ5      -0.158000
      6 C10          2.7380    -1.2650     0.6190 c          1 GQ5       0.624700
      7 C4          -6.0920    -0.0520    -1.5070 c5         1 GQ5       0.166800
      8 N3           8.4520     0.4970    -0.5920 nc         1 GQ5      -0.516100
      9 N5          -3.8760    -1.8770     1.4350 nc         1 GQ5      -0.578100
     10 C6          -4.3360    -0.6880     0.9890 cd         1 GQ5       0.410800
     11 O            2.8720    -2.3980     1.0690 o          1 GQ5      -0.585100
     12 C11          3.9410    -0.4530     0.1840 ca         1 GQ5      -0.198600
     13 C18          3.8160     0.8700    -0.3430 ca         1 GQ5      -0.056000
     14 C17          4.9560     1.6020    -0.7400 ca         1 GQ5      -0.136000
     15 C16          6.2080     0.9920    -0.6000 ca         1 GQ5      -0.021200
     16 N4           7.4770     1.4520    -0.8970 na         1 GQ5       0.076600
     17 C15          7.7750     2.7770    -1.4620 c3         1 GQ5       0.080900
     18 C14          7.7520    -0.5450    -0.1070 cd         1 GQ5       0.368800
     19 C13          6.3350    -0.2610    -0.1000 ca         1 GQ5      -0.246900
     20 C12          5.2340    -1.0260     0.3060 ca         1 GQ5       0.033000
     21 C8          -0.8640    -0.1420     0.4740 ca         1 GQ5      -0.160000
     22 C19         -0.1590    -2.3310     1.2990 ca         1 GQ5      -0.130000
     23 C20         -1.5050    -2.6760     1.5550 ca         1 GQ5      -0.036000
     24 C21         -2.5080    -1.7420     1.2640 ca         1 GQ5       0.057400
     25 C5          -5.8160    -0.3270     0.9720 c3         1 GQ5       0.157500
     26 N           -6.2510     0.5520    -0.1610 n3         1 GQ5      -0.765600
     27 C1          -7.6690     0.9760    -0.1560 c5         1 GQ5       0.187500
     28 C           -8.1160     1.7820     1.0840 c3         1 GQ5      -0.086100
     29 C3          -6.8000     0.9750    -2.4350 c5         1 GQ5      -0.082400
     30 H1          -3.4670     1.1120     0.1670 hn         1 GQ5       0.371000
     31 H3          -7.2770     2.8050    -1.3110 hc         1 GQ5       0.048700
     32 H4           1.5580     0.2900     0.0880 hn         1 GQ5       0.152000
     33 H5          -5.0390    -0.1970    -1.7850 h1         1 GQ5       0.043200
     34 H6          -6.5920    -1.0300    -1.5620 h1         1 GQ5       0.043200
     35 H8           2.8450     1.3450    -0.4530 ha         1 GQ5       0.108000
     36 H9           4.8600     2.6080    -1.1410 ha         1 GQ5       0.122000
     37 H10          7.2720     2.8830    -2.4310 h1         1 GQ5       0.055033
     38 H11          7.4160     3.5550    -0.7780 h1         1 GQ5       0.055033
     39 H12          8.8570     2.8890    -1.6010 h1         1 GQ5       0.055033
     40 H13          8.2810    -1.4350     0.2100 h4         1 GQ5       0.055800
     41 H14          5.3790    -2.0300     0.7020 ha         1 GQ5       0.143000
     42 H15         -0.6460     0.8390     0.0580 ha         1 GQ5       0.115000
     43 H16          0.6050    -3.0650     1.5300 ha         1 GQ5       0.136000
     44 H17         -1.7600    -3.6480     1.9710 ha         1 GQ5       0.131000
     45 H18         -6.3950    -1.2610     0.9640 h1         1 GQ5       0.061700
     46 H19         -6.0260     0.1660     1.9290 h1         1 GQ5       0.061700
     47 H21         -8.3340     0.1040    -0.2450 h1         1 GQ5       0.030700
     48 H22         -9.1260     2.1830     0.9420 hc         1 GQ5       0.039367
     49 H23         -8.1360     1.1540     1.9820 hc         1 GQ5       0.039367
     50 H24         -7.4420     2.6260     1.2730 hc         1 GQ5       0.039367
     51 H25         -7.3860     0.4670    -3.2090 hc         1 GQ5       0.050700
     52 H26         -6.0760     1.6180    -2.9470 hc         1 GQ5       0.050700
     53 H2          -8.7150     1.9370    -1.8490 hc         1 GQ5       0.048700
@<TRIPOS>BOND
     1     1     3 1   
     2     1    21 ar  
     3     1    24 ar  
     4     2     5 1   
     5     2    21 ar  
     6     2    22 ar  
     7     3    10 1   
     8     3    30 1   
     9     4    27 1   
    10     4    29 1   
    11     4    31 1   
    12     4    53 1   
    13     5     6 1   
    14     5    32 1   
    15     6    11 2   
    16     6    12 1   
    17     7    26 1   
    18     7    29 1   
    19     7    33 1   
    20     7    34 1   
    21     8    16 1   
    22     8    18 2   
    23     9    10 2   
    24     9    24 1   
    25    10    25 1   
    26    12    13 ar  
    27    12    20 ar  
    28    13    14 ar  
    29    13    35 1   
    30    14    15 ar  
    31    14    36 1   
    32    15    16 1   
    33    15    19 ar  
    34    16    17 1   
    35    17    37 1   
    36    17    38 1   
    37    17    39 1   
    38    18    19 1   
    39    18    40 1   
    40    19    20 ar  
    41    20    41 1   
    42    21    42 1   
    43    22    23 ar  
    44    22    43 1   
    45    23    24 ar  
    46    23    44 1   
    47    25    26 1   
    48    25    45 1   
    49    25    46 1   
    50    26    27 1   
    51    27    28 1   
    52    27    47 1   
    53    28    48 1   
    54    28    49 1   
    55    28    50 1   
    56    29    51 1   
    57    29    52 1   
@<TRIPOS>SUBSTRUCTURE
     1 GQ5         1 TEMP              0 ****  ****    0 ROOT
