@<TRIPOS>MOLECULE
GQ5
   53    57     1     0     0
SMALL
bcc


@<TRIPOS>ATOM
      1 C7          -2.2410    -0.6950     0.4240 ca         1 GQ5      -0.064200
      2 C9           0.0880    -1.1120     0.3540 ca         1 GQ5       0.078600
      3 N1          -3.4760    -0.1130     0.3590 na         1 GQ5      -0.249300
      4 C2          -7.8830     1.6160    -1.1700 c5         1 GQ5      -0.084400
      5 N2           1.3890    -0.6520     0.0640 ns         1 GQ5      -0.484100
      6 C10          2.5000    -0.8800     0.8040 c          1 GQ5       0.691700
      7 C4          -6.3160    -0.1440    -1.5030 c5         1 GQ5       0.166800
      8 N3           8.2090     0.5830    -0.1720 nc         1 GQ5      -0.516100
      9 N5          -3.8460    -2.1960     1.0310 nc         1 GQ5      -0.578100
     10 C6          -4.3870    -1.0480     0.7300 cd         1 GQ5       0.410800
     11 O            2.5140    -1.6250     1.7710 o          1 GQ5      -0.585100
     12 C11          3.7360    -0.1770     0.3480 ca         1 GQ5      -0.198600
     13 C18          3.6980     1.0320    -0.3890 ca         1 GQ5      -0.074000
     14 C17          4.8390     1.6800    -0.7960 ca         1 GQ5      -0.154000
     15 C16          6.0620     1.0910    -0.4540 ca         1 GQ5      -0.021200
     16 N4           7.3400     1.4610    -0.6900 na         1 GQ5       0.105900
     17 C15          7.8120     2.5710    -1.4770 c3         1 GQ5       0.051600
     18 C14          7.5150    -0.3550     0.4170 cd         1 GQ5       0.368800
     19 C13          6.1230    -0.1050     0.2840 ca         1 GQ5      -0.246900
     20 C12          4.9500    -0.7360     0.6990 ca         1 GQ5       0.015000
     21 C8          -0.9620    -0.2210     0.1750 ca         1 GQ5      -0.178000
     22 C19         -0.1460    -2.4360     0.7670 ca         1 GQ5      -0.148000
     23 C20         -1.4270    -2.8880     1.0230 ca         1 GQ5      -0.054000
     24 C21         -2.4940    -2.0090     0.8550 ca         1 GQ5       0.057400
     25 C5          -5.8350    -0.6960     0.8190 c3         1 GQ5       0.157500
     26 N           -6.1740     0.3240    -0.1370 n3         1 GQ5      -0.765600
     27 C1          -7.3590     1.1190     0.1950 c5         1 GQ5       0.187500
     28 C           -7.0130     2.2420     1.1580 c3         1 GQ5      -0.086100
     29 C3          -6.8910     1.0730    -2.2040 c5         1 GQ5      -0.082400
     30 H1          -3.7130     0.8240     0.0680 hn         1 GQ5       0.320700
     31 H3          -7.9600     2.7040    -1.2040 hc         1 GQ5       0.048700
     32 H4           1.4640    -0.0360    -0.7300 hn         1 GQ5       0.318500
     33 H5          -5.3560    -0.4650    -1.9140 h1         1 GQ5       0.043200
     34 H6          -7.0090    -0.9990    -1.5790 h1         1 GQ5       0.043200
     35 H8           2.7500     1.5000    -0.6210 ha         1 GQ5       0.126000
     36 H9           4.7800     2.6080    -1.3480 ha         1 GQ5       0.140000
     37 H10          8.0160     2.2700    -2.5040 h1         1 GQ5       0.055033
     38 H11          7.0610     3.3570    -1.4840 h1         1 GQ5       0.055033
     39 H12          8.7220     2.9670    -1.0320 h1         1 GQ5       0.055033
     40 H13          8.0070    -1.1740     0.9200 h4         1 GQ5       0.055800
     41 H14          4.9910    -1.6520     1.2740 ha         1 GQ5       0.161000
     42 H15         -0.7810     0.7990    -0.1390 ha         1 GQ5       0.133000
     43 H16          0.6830    -3.1180     0.8710 ha         1 GQ5       0.154000
     44 H17         -1.5950    -3.9100     1.3390 ha         1 GQ5       0.149000
     45 H18         -6.4340    -1.6130     0.7190 h1         1 GQ5       0.061700
     46 H19         -6.0230    -0.3170     1.8290 h1         1 GQ5       0.061700
     47 H21         -8.1270     0.4840     0.6620 h1         1 GQ5       0.030700
     48 H22         -7.9090     2.7990     1.4370 hc         1 GQ5       0.039367
     49 H23         -6.5650     1.8650     2.0800 hc         1 GQ5       0.039367
     50 H24         -6.3080     2.9360     0.6980 hc         1 GQ5       0.039367
     51 H25         -7.3600     0.8290    -3.1570 hc         1 GQ5       0.050700
     52 H26         -6.0980     1.7970    -2.3980 hc         1 GQ5       0.050700
     53 H2          -8.8820     1.2190    -1.3550 hc         1 GQ5       0.048700
@<TRIPOS>BOND
     1     1     3 1   
     2     1    21 ar  
     3     1    24 ar  
     4     2     5 1   
     5     2    21 ar  
     6     2    22 ar  
     7     3    10 1   
     8     3    30 1   
     9     4    27 1   
    10     4    29 1   
    11     4    31 1   
    12     4    53 1   
    13     5     6 1   
    14     5    32 1   
    15     6    11 2   
    16     6    12 1   
    17     7    26 1   
    18     7    29 1   
    19     7    33 1   
    20     7    34 1   
    21     8    16 1   
    22     8    18 2   
    23     9    10 2   
    24     9    24 1   
    25    10    25 1   
    26    12    13 ar  
    27    12    20 ar  
    28    13    14 ar  
    29    13    35 1   
    30    14    15 ar  
    31    14    36 1   
    32    15    16 1   
    33    15    19 ar  
    34    16    17 1   
    35    17    37 1   
    36    17    38 1   
    37    17    39 1   
    38    18    19 1   
    39    18    40 1   
    40    19    20 ar  
    41    20    41 1   
    42    21    42 1   
    43    22    23 ar  
    44    22    43 1   
    45    23    24 ar  
    46    23    44 1   
    47    25    26 1   
    48    25    45 1   
    49    25    46 1   
    50    26    27 1   
    51    27    28 1   
    52    27    47 1   
    53    28    48 1   
    54    28    49 1   
    55    28    50 1   
    56    29    51 1   
    57    29    52 1   
@<TRIPOS>SUBSTRUCTURE
     1 GQ5         1 TEMP              0 ****  ****    0 ROOT
