@<TRIPOS>MOLECULE
GQ6
   31    33     1     0     0
SMALL
abcg2


@<TRIPOS>ATOM
      1 C13         -3.8910    33.1290    23.7260 ca         1 GQ6      -0.130300
      2 C15         -3.8930    30.7320    24.0000 ca         1 GQ6      -0.114500
      3 C17         -5.7470    32.0140    24.7920 ca         1 GQ6      -0.114500
      4 C02          0.8210    33.7100    24.7840 ca         1 GQ6       0.406900
      5 C04         -1.1730    34.6710    24.7210 ca         1 GQ6       0.151500
      6 C05         -0.8990    35.4820    25.8290 ca         1 GQ6      -0.079600
      7 C06          0.3660    35.2990    26.3570 ca         1 GQ6       0.315000
      8 C08         -2.8550    35.9660    25.2290 cc         1 GQ6       0.409700
      9 C12         -3.2140    34.3970    23.2790 c3         1 GQ6       0.137900
     10 C14         -3.2770    31.8930    23.5550 ca         1 GQ6      -0.080500
     11 C16         -5.1380    30.7720    24.6230 ca         1 GQ6      -0.059300
     12 C18         -5.1340    33.1760    24.3490 ca         1 GQ6      -0.080500
     13 C19         -5.8190    29.5110    25.0700 c3         1 GQ6      -0.049800
     14 N01          1.2080    34.4370    25.8550 nb         1 GQ6      -0.257000
     15 N03         -0.3610    33.7880    24.1730 nb         1 GQ6      -0.260000
     16 N07         -2.4350    35.0050    24.3450 na         1 GQ6      -0.287300
     17 N09         -1.9710    36.2830    26.1250 nd         1 GQ6      -0.517100
     18 CL1          0.8740    36.2240    27.7200 cl         1 GQ6      -0.134000
     19 H1          -3.3970    29.7790    23.8590 ha         1 GQ6       0.114500
     20 H2          -6.7160    32.0720    25.2750 ha         1 GQ6       0.114500
     21 H3          -3.8410    36.3990    25.1450 h5         1 GQ6       0.066800
     22 H4          -2.5430    34.2100    22.4410 h1         1 GQ6       0.069200
     23 H5          -3.9470    35.1340    22.9520 h1         1 GQ6       0.069200
     24 H6          -2.3080    31.8370    23.0740 ha         1 GQ6       0.117000
     25 H7          -5.6320    34.1300    24.4880 ha         1 GQ6       0.117000
     26 H8          -6.4460    29.1050    24.2740 hc         1 GQ6       0.044700
     27 H9          -5.0960    28.7400    25.3360 hc         1 GQ6       0.044700
     28 H10         -6.4630    29.6870    25.9310 hc         1 GQ6       0.044700
     29 H11          1.5460    32.3880    23.4260 hn         1 GQ6       0.497000
     30 H12          2.6640    32.8700    24.6310 hn         1 GQ6       0.497000
     31 N11          1.7090    32.8090    24.3240 nv         1 GQ6      -1.053900
@<TRIPOS>BOND
     1     1     9 1   
     2     1    10 ar  
     3     1    12 ar  
     4     2    10 ar  
     5     2    11 ar  
     6     2    19 1   
     7     3    11 ar  
     8     3    12 ar  
     9     3    20 1   
    10     4    14 ar  
    11     4    15 ar  
    12     4    31 1   
    13     5     6 ar  
    14     5    15 ar  
    15     5    16 1   
    16     6     7 ar  
    17     6    17 1   
    18     7    14 ar  
    19     7    18 1   
    20     8    16 1   
    21     8    17 2   
    22     8    21 1   
    23     9    16 1   
    24     9    22 1   
    25     9    23 1   
    26    10    24 1   
    27    11    13 1   
    28    12    25 1   
    29    13    26 1   
    30    13    27 1   
    31    13    28 1   
    32    29    31 1   
    33    30    31 1   
@<TRIPOS>SUBSTRUCTURE
     1 GQ6         1 TEMP              0 ****  ****    0 ROOT
