@<TRIPOS>MOLECULE
GQ6
   31    33     1     0     0
SMALL
No Charge or Current Charge


@<TRIPOS>ATOM
      1 C13         -3.9730    33.0650    23.9290 ca         1 GQ6      -0.130300
      2 C15         -4.0900    30.8180    24.8800 ca         1 GQ6      -0.114500
      3 C17         -6.0920    31.8520    23.9730 ca         1 GQ6      -0.114500
      4 C02          1.1650    34.0380    24.3770 ca         1 GQ6       0.406900
      5 C04         -0.9970    34.6340    24.7470 ca         1 GQ6       0.151500
      6 C05         -0.6260    35.2540    25.9160 ca         1 GQ6      -0.079600
      7 C06          0.7370    35.2300    26.2790 ca         1 GQ6       0.315000
      8 C08         -2.7590    35.5470    25.7870 cc         1 GQ6       0.409700
      9 C12         -3.1740    34.3130    23.5640 c3         1 GQ6       0.137900
     10 C14         -3.3470    31.9640    24.5480 ca         1 GQ6      -0.080500
     11 C16         -5.4670    30.7560    24.5970 ca         1 GQ6      -0.059300
     12 C18         -5.3500    32.9990    23.6400 ca         1 GQ6      -0.080500
     13 C19         -6.2690    29.5140    24.9530 c3         1 GQ6      -0.049800
     14 N01          1.6460    34.6120    25.4950 nb         1 GQ6      -0.257000
     15 N03         -0.1100    34.0100    23.9480 nb         1 GQ6      -0.260000
     16 N07         -2.3470    34.8200    24.6700 na         1 GQ6      -0.287300
     17 N09         -1.7110    35.8330    26.5830 nd         1 GQ6      -0.517100
     18 Cl1          1.3220    35.9930    27.7540 cl         1 GQ6      -0.134000
     19 H1          -3.5920    29.9760    25.3560 ha         1 GQ6       0.114500
     20 H2          -7.1540    31.8150    23.7430 ha         1 GQ6       0.114500
     21 H3          -3.7940    35.8220    25.9560 h5         1 GQ6       0.066800
     22 H4          -2.5310    34.0860    22.7030 h1         1 GQ6       0.069200
     23 H5          -3.8590    35.1130    23.2530 h1         1 GQ6       0.069200
     24 H6          -2.2830    31.9920    24.7710 ha         1 GQ6       0.117000
     25 H7          -5.8500    33.8360    23.1580 ha         1 GQ6       0.117000
     26 H8          -6.2640    28.7960    24.1250 hc         1 GQ6       0.044700
     27 H9          -5.8570    29.0120    25.8360 hc         1 GQ6       0.044700
     28 H10         -7.3140    29.7630    25.1740 hc         1 GQ6       0.044700
     29 H11          1.7980    33.1680    22.6400 hn         1 GQ6       0.497000
     30 H12          3.0620    33.5990    23.7440 hn         1 GQ6       0.497000
     31 N11          2.0730    33.4180    23.5870 nv         1 GQ6      -1.053900
@<TRIPOS>BOND
     1     1     9 1   
     2     1    10 ar  
     3     1    12 ar  
     4     2    10 ar  
     5     2    11 ar  
     6     2    19 1   
     7     3    11 ar  
     8     3    12 ar  
     9     3    20 1   
    10     4    14 ar  
    11     4    15 ar  
    12     4    31 1   
    13     5     6 ar  
    14     5    15 ar  
    15     5    16 1   
    16     6     7 ar  
    17     6    17 1   
    18     7    14 ar  
    19     7    18 1   
    20     8    16 1   
    21     8    17 2   
    22     8    21 1   
    23     9    16 1   
    24     9    22 1   
    25     9    23 1   
    26    10    24 1   
    27    11    13 1   
    28    12    25 1   
    29    13    26 1   
    30    13    27 1   
    31    13    28 1   
    32    29    31 1   
    33    30    31 1   
@<TRIPOS>SUBSTRUCTURE
     1 GQ6         1 TEMP              0 ****  ****    0 ROOT
