@<TRIPOS>MOLECULE
GQ7
   25    26     1     0     0
SMALL
bcc


@<TRIPOS>ATOM
      1 C4          -1.2060     1.0130     0.0700 ca         1 GQ7      -0.061500
      2 C5          -0.7830    -0.3180     0.0110 ca         1 GQ7      -0.175500
      3 C6           0.6190    -0.6870     0.0950 cc         1 GQ7       0.326200
      4 C7           1.2680    -1.8860     0.0930 cd         1 GQ7      -0.273300
      5 C8           2.6570    -1.5910     0.2010 cd         1 GQ7      -0.243300
      6 C           -1.7670    -1.3020    -0.1270 ca         1 GQ7      -0.061500
      7 O            1.5250     0.3080     0.2000 os         1 GQ7      -0.320800
      8 C1          -3.1070    -0.9780    -0.2020 ca         1 GQ7      -0.203500
      9 C2          -3.5280     0.3580    -0.1440 ca         1 GQ7       0.166600
     10 C3          -2.5460     1.3460    -0.0050 ca         1 GQ7      -0.203500
     11 C9           2.7620    -0.2420     0.2650 cc         1 GQ7       0.229000
     12 O1           4.0630     1.4090    -0.8130 oh         1 GQ7      -0.584800
     13 H1          -0.4850     1.8120     0.1800 ha         1 GQ7       0.136500
     14 H2           0.8190    -2.8640     0.0230 ha         1 GQ7       0.157000
     15 H3           3.4730    -2.2950     0.2290 ha         1 GQ7       0.157000
     16 H4           3.7730     1.3430     1.2440 h1         1 GQ7       0.034700
     17 H5           4.8010     0.0640     0.6060 h1         1 GQ7       0.034700
     18 H6          -5.5170    -0.0350    -0.0300 hn         1 GQ7       0.396800
     19 H7          -5.1300     1.5860     0.0890 hn         1 GQ7       0.396800
     20 H8          -1.4860    -2.3470    -0.1760 ha         1 GQ7       0.136500
     21 H9          -3.8410    -1.7670    -0.3080 ha         1 GQ7       0.131000
     22 H10         -2.8370     2.3880     0.0470 ha         1 GQ7       0.131000
     23 H11          4.6990     2.1130    -0.6530 ho         1 GQ7       0.405000
     24 C10          3.9180     0.6750     0.3860 c3         1 GQ7       0.116100
     25 N           -4.8560     0.6860    -0.2710 nv         1 GQ7      -0.826200
@<TRIPOS>BOND
     1     1     2 ar  
     2     1    10 ar  
     3     1    13 1   
     4     2     3 1   
     5     2     6 ar  
     6     3     4 2   
     7     3     7 1   
     8     4     5 1   
     9     4    14 1   
    10     5    11 2   
    11     5    15 1   
    12     6     8 ar  
    13     6    20 1   
    14     7    11 1   
    15     8     9 ar  
    16     8    21 1   
    17     9    10 ar  
    18     9    25 1   
    19    10    22 1   
    20    11    24 1   
    21    12    23 1   
    22    12    24 1   
    23    16    24 1   
    24    17    24 1   
    25    18    25 1   
    26    19    25 1   
@<TRIPOS>SUBSTRUCTURE
     1 GQ7         1 TEMP              0 ****  ****    0 ROOT
