@<TRIPOS>MOLECULE
GQ7
   25    26     1     0     0
SMALL
No Charge or Current Charge


@<TRIPOS>ATOM
      1 C4          -1.3250     1.0670     0.1700 ca         1 GQ7      -0.043500
      2 C5          -0.8380    -0.2490     0.0210 ca         1 GQ7      -0.175500
      3 C6           0.6080    -0.5010     0.0770 cc         1 GQ7       0.216500
      4 C7           1.2260    -1.7200    -0.0020 cd         1 GQ7      -0.190000
      5 C8           2.6100    -1.4600     0.1020 cd         1 GQ7      -0.160000
      6 C           -1.7650    -1.2970    -0.1810 ca         1 GQ7      -0.043500
      7 O            1.5280     0.5100     0.2280 os         1 GQ7      -0.232000
      8 C1          -3.1440    -1.0270    -0.2300 ca         1 GQ7      -0.185500
      9 C2          -3.6140     0.2830    -0.0800 ca         1 GQ7       0.305000
     10 C3          -2.7060     1.3280     0.1200 ca         1 GQ7      -0.185500
     11 C9           2.7640    -0.1030     0.2380 cc         1 GQ7       0.119300
     12 O1           4.7440     0.8310    -0.8340 oh         1 GQ7      -0.647000
     13 H1          -0.6370     1.8950     0.3260 ha         1 GQ7       0.118500
     14 H2           0.7590    -2.6900    -0.1180 ha         1 GQ7       0.139000
     15 H3           3.4110    -2.1910     0.0800 ha         1 GQ7       0.139000
     16 H4           3.7160     1.7410     0.7400 h1         1 GQ7       0.034700
     17 H5           4.6330     0.2930     1.1810 h1         1 GQ7       0.034700
     18 H6          -5.6190    -0.2340    -0.1190 hn         1 GQ7       0.452000
     19 H7          -5.3060     1.4600     0.1320 hn         1 GQ7       0.452000
     20 H8          -1.4310    -2.3240    -0.3030 ha         1 GQ7       0.118500
     21 H9          -3.8440    -1.8430    -0.3870 ha         1 GQ7       0.113000
     22 H10         -3.0630     2.3480     0.2360 ha         1 GQ7       0.113000
     23 H11          5.5310     1.3950    -0.6570 ho         1 GQ7       0.444000
     24 C10          4.0070     0.7390     0.3960 c3         1 GQ7       0.139300
     25 N           -4.9560     0.5390    -0.1270 nv         1 GQ7      -1.075000
@<TRIPOS>BOND
     1     1     2 ar  
     2     1    10 ar  
     3     1    13 1   
     4     2     3 1   
     5     2     6 ar  
     6     3     4 2   
     7     3     7 1   
     8     4     5 1   
     9     4    14 1   
    10     5    11 2   
    11     5    15 1   
    12     6     8 ar  
    13     6    20 1   
    14     7    11 1   
    15     8     9 ar  
    16     8    21 1   
    17     9    10 ar  
    18     9    25 1   
    19    10    22 1   
    20    11    24 1   
    21    12    23 1   
    22    12    24 1   
    23    16    24 1   
    24    17    24 1   
    25    18    25 1   
    26    19    25 1   
@<TRIPOS>SUBSTRUCTURE
     1 GQ7         1 TEMP              0 ****  ****    0 ROOT
