@<TRIPOS>MOLECULE
GQ9
   34    37     1     0     0
SMALL
No Charge or Current Charge


@<TRIPOS>ATOM
      1 C13         -5.1250    32.7750    24.0520 cc         1 GQ9       0.519500
      2 C15         -5.4140    34.7670    23.3570 cd         1 GQ9       0.259900
      3 C17         -5.2890    31.4120    24.5780 ca         1 GQ9      -0.143500
      4 C20         -5.6140    28.7930    25.6020 ca         1 GQ9      -0.088000
      5 C21         -4.3310    29.2750    25.2930 ca         1 GQ9      -0.120500
      6 C22         -4.1680    30.5760    24.7850 ca         1 GQ9      -0.068000
      7 C02         -2.1040    36.8930    24.7400 cc         1 GQ9       0.411700
      8 C04         -1.0460    34.9330    24.4860 ca         1 GQ9       0.156500
      9 C06          0.4420    33.2650    24.8940 ca         1 GQ9       0.410900
     10 C08          0.5360    35.0880    26.2690 ca         1 GQ9       0.317000
     11 C09         -0.5290    35.6530    25.5360 ca         1 GQ9      -0.080600
     12 C16         -4.0760    34.4780    23.2960 cc         1 GQ9       0.050300
     13 C18         -6.5740    30.9170    24.8950 ca         1 GQ9      -0.068000
     14 C19         -6.7340    29.6150    25.4030 ca         1 GQ9      -0.120500
     15 N01         -1.1730    36.8810    25.7140 nd         1 GQ9      -0.511100
     16 N03         -2.0420    35.7200    23.9840 na         1 GQ9      -0.295300
     17 N05         -0.5730    33.7220    24.1370 nb         1 GQ9      -0.253000
     18 N07          1.0290    33.8740    25.9410 nb         1 GQ9      -0.257000
     19 N14         -6.0880    33.6640    23.8440 nd         1 GQ9      -0.680000
     20 O12         -3.8720    33.2080    23.7310 os         1 GQ9      -0.232000
     21 Cl2          1.2730    35.9220    27.6330 cl         1 GQ9      -0.131000
     22 H1          -5.9200    35.6870    23.0880 h4         1 GQ9       0.048100
     23 H2          -5.7380    27.7860    25.9960 ha         1 GQ9       0.116000
     24 H3          -3.4620    28.6400    25.4480 ha         1 GQ9       0.118000
     25 H4          -3.1630    30.9270    24.5550 ha         1 GQ9       0.133500
     26 H5          -2.8230    37.6790    24.5420 h5         1 GQ9       0.068800
     27 H6          -2.3040    34.7360    22.1390 h1         1 GQ9       0.084700
     28 H7          -3.2660    36.2070    22.3430 h1         1 GQ9       0.084700
     29 H8          -7.4550    31.5390    24.7480 ha         1 GQ9       0.133500
     30 H9          -7.7280    29.2450    25.6430 ha         1 GQ9       0.118000
     31 H10          0.6850    31.6600    23.6540 hn         1 GQ9       0.501000
     32 H11          1.8330    31.7640    24.9460 hn         1 GQ9       0.501000
     33 C11         -2.9020    35.3090    22.8600 c3         1 GQ9       0.073300
     34 N10          0.9350    32.0490    24.5600 nv         1 GQ9      -1.058900
@<TRIPOS>BOND
     1     1     3 1   
     2     1    19 2   
     3     1    20 1   
     4     2    12 2   
     5     2    19 1   
     6     2    22 1   
     7     3     6 ar  
     8     3    13 ar  
     9     4     5 ar  
    10     4    14 ar  
    11     4    23 1   
    12     5     6 ar  
    13     5    24 1   
    14     6    25 1   
    15     7    15 2   
    16     7    16 1   
    17     7    26 1   
    18     8    11 ar  
    19     8    16 1   
    20     8    17 ar  
    21     9    17 ar  
    22     9    18 ar  
    23     9    34 1   
    24    10    11 ar  
    25    10    18 ar  
    26    10    21 1   
    27    11    15 1   
    28    12    20 1   
    29    12    33 1   
    30    13    14 ar  
    31    13    29 1   
    32    14    30 1   
    33    16    33 1   
    34    27    33 1   
    35    28    33 1   
    36    31    34 1   
    37    32    34 1   
@<TRIPOS>SUBSTRUCTURE
     1 GQ9         1 TEMP              0 ****  ****    0 ROOT
