@<TRIPOS>MOLECULE
GQ9
   34    37     1     0     0
SMALL
bcc


@<TRIPOS>ATOM
      1 C13         -5.0900    32.8260    23.9980 cc         1 GQ9       0.563900
      2 C15         -5.4240    34.7580    23.2010 cd         1 GQ9       0.259900
      3 C17         -5.1820    31.4950    24.5800 ca         1 GQ9      -0.143500
      4 C20         -5.4070    28.9600    25.7120 ca         1 GQ9      -0.106000
      5 C21         -4.1550    29.4810    25.4130 ca         1 GQ9      -0.138500
      6 C22         -4.0380    30.7420    24.8490 ca         1 GQ9      -0.086000
      7 C02         -2.1540    36.7440    24.8220 cc         1 GQ9       0.411700
      8 C04         -1.1010    34.8550    24.5000 ca         1 GQ9       0.484800
      9 C06          0.2920    33.1610    24.7920 ca         1 GQ9       0.936900
     10 C08          0.3560    34.8550    26.3200 ca         1 GQ9       0.645300
     11 C09         -0.6470    35.5250    25.6420 ca         1 GQ9      -0.211200
     12 C16         -4.0880    34.5590    23.2160 cc         1 GQ9       0.094700
     13 C18         -6.4390    30.9680    24.8810 ca         1 GQ9      -0.086000
     14 C19         -6.5480    29.7070    25.4430 ca         1 GQ9      -0.138500
     15 N01         -1.3230    36.7040    25.8170 nd         1 GQ9      -0.511100
     16 N03         -2.0640    35.6620    23.9820 na         1 GQ9      -0.266000
     17 N05         -0.6710    33.6970    24.0420 nb         1 GQ9      -0.779000
     18 N07          0.8160    33.7050    25.9130 nb         1 GQ9      -0.783000
     19 N14         -6.0490    33.6400    23.7000 nd         1 GQ9      -0.680000
     20 O12         -3.8770    33.3210    23.7240 os         1 GQ9      -0.320800
     21 CL2          1.0320    35.5370    27.7510 cl         1 GQ9      -0.131000
     22 H1          -5.9680    35.6260    22.8670 h4         1 GQ9       0.048100
     23 H2          -5.4940    27.9750    26.1520 ha         1 GQ9       0.134000
     24 H3          -3.2630    28.9040    25.6180 ha         1 GQ9       0.136000
     25 H4          -3.0530    31.1320    24.6240 ha         1 GQ9       0.151500
     26 H5          -2.8600    37.5370    24.6260 h5         1 GQ9       0.068800
     27 H6          -2.3020    34.8720    22.0840 h1         1 GQ9       0.084700
     28 H7          -3.2510    36.3150    22.4090 h1         1 GQ9       0.084700
     29 H8          -7.3290    31.5470    24.6740 ha         1 GQ9       0.151500
     30 H9          -7.5260    29.3060    25.6730 ha         1 GQ9       0.136000
     31 H10          0.5450    31.5900    23.5270 hn         1 GQ9       0.445800
     32 H11          1.6140    31.6190    24.8710 hn         1 GQ9       0.445800
     33 C11         -2.9100    35.3740    22.8390 c3         1 GQ9       0.044000
     34 N10          0.7760    31.9580    24.4340 nv         1 GQ9      -0.948500
@<TRIPOS>BOND
     1     1     3 1   
     2     1    19 2   
     3     1    20 1   
     4     2    12 2   
     5     2    19 1   
     6     2    22 1   
     7     3     6 ar  
     8     3    13 ar  
     9     4     5 ar  
    10     4    14 ar  
    11     4    23 1   
    12     5     6 ar  
    13     5    24 1   
    14     6    25 1   
    15     7    15 2   
    16     7    16 1   
    17     7    26 1   
    18     8    11 ar  
    19     8    16 1   
    20     8    17 ar  
    21     9    17 ar  
    22     9    18 ar  
    23     9    34 1   
    24    10    11 ar  
    25    10    18 ar  
    26    10    21 1   
    27    11    15 1   
    28    12    20 1   
    29    12    33 1   
    30    13    14 ar  
    31    13    29 1   
    32    14    30 1   
    33    16    33 1   
    34    27    33 1   
    35    28    33 1   
    36    31    34 1   
    37    32    34 1   
@<TRIPOS>SUBSTRUCTURE
     1 GQ9         1 TEMP              0 ****  ****    0 ROOT
