@<TRIPOS>MOLECULE
GQA
   16    16     1     0     0
SMALL
No Charge or Current Charge


@<TRIPOS>ATOM
      1 N1           0.0820     1.2280    -0.0230 n          1 GQA      -0.153000
      2 C4           2.3760     0.3750    -0.0830 cc         1 GQA      -0.211000
      3 C5           1.4720     1.4130    -0.0800 cd         1 GQA      -0.110400
      4 C6          -0.8160     2.4050    -0.0240 c3         1 GQA       0.066300
      5 C1          -0.4310    -0.0750     0.0350 cs         1 GQA       0.328600
      6 C2           0.5440    -1.1750     0.0310 cd         1 GQA       0.085900
      7 O1           0.0230    -2.4270     0.0880 oh         1 GQA      -0.477100
      8 C3           1.9000    -0.9660    -0.0260 cc         1 GQA      -0.241000
      9 H1           3.4480     0.5660    -0.1290 ha         1 GQA       0.203000
     10 H2           1.7710     2.4580    -0.1230 h4         1 GQA       0.210000
     11 H3          -1.4170     2.4120     0.8940 h1         1 GQA       0.069033
     12 H4          -0.2390     3.3370    -0.0730 h1         1 GQA       0.069033
     13 H5          -1.4840     2.3590    -0.8930 h1         1 GQA       0.069033
     14 H6           0.7720    -3.0590     0.0790 ho         1 GQA       0.463000
     15 H7           2.6120    -1.7880    -0.0280 ha         1 GQA       0.192000
     16 S1          -2.0960    -0.3720     0.1070 s          1 GQA      -0.563400
@<TRIPOS>BOND
     1     1     3 1   
     2     1     4 1   
     3     1     5 1   
     4     2     3 2   
     5     2     8 1   
     6     2     9 1   
     7     3    10 1   
     8     4    11 1   
     9     4    12 1   
    10     4    13 1   
    11     5     6 1   
    12     5    16 2   
    13     6     7 1   
    14     6     8 2   
    15     7    14 1   
    16     8    15 1   
@<TRIPOS>SUBSTRUCTURE
     1 GQA         1 TEMP              0 ****  ****    0 ROOT
