@<TRIPOS>MOLECULE
GQA
   16    16     1     0     0
SMALL
bcc


@<TRIPOS>ATOM
      1 N1           0.1250     1.1880    -0.0230 n          1 GQA      -0.220000
      2 C4           2.3550     0.4070    -0.0820 cc         1 GQA      -0.161000
      3 C5           1.4610     1.4280    -0.0810 cd         1 GQA      -0.060400
      4 C6          -0.7790     2.3320    -0.0230 c3         1 GQA       0.066300
      5 C1          -0.4100    -0.0670     0.0360 cs         1 GQA       0.395600
      6 C2           0.5300    -1.1470     0.0330 cd         1 GQA       0.085900
      7 O1          -0.0020    -2.3740     0.0860 oh         1 GQA      -0.438100
      8 C3           1.8780    -0.9100    -0.0220 cc         1 GQA      -0.191000
      9 H1           3.4130     0.6170    -0.1280 ha         1 GQA       0.153000
     10 H2           1.7580     2.4640    -0.1270 h4         1 GQA       0.160000
     11 H3          -1.3760     2.3370     0.8860 h1         1 GQA       0.069033
     12 H4          -0.1920     3.2430    -0.0800 h1         1 GQA       0.069033
     13 H5          -1.4530     2.2750    -0.8750 h1         1 GQA       0.069033
     14 H6           0.6980    -3.0380     0.0670 ho         1 GQA       0.424000
     15 H7           2.5790    -1.7370    -0.0200 ha         1 GQA       0.142000
     16 S1          -2.0690    -0.3260     0.1040 s          1 GQA      -0.563400
@<TRIPOS>BOND
     1     1     3 1   
     2     1     4 1   
     3     1     5 1   
     4     2     3 2   
     5     2     8 1   
     6     2     9 1   
     7     3    10 1   
     8     4    11 1   
     9     4    12 1   
    10     4    13 1   
    11     5     6 1   
    12     5    16 2   
    13     6     7 1   
    14     6     8 2   
    15     7    14 1   
    16     8    15 1   
@<TRIPOS>SUBSTRUCTURE
     1 GQA         1 TEMP              0 ****  ****    0 ROOT
