@<TRIPOS>MOLECULE
GQB
   39    41     1     0     0
SMALL
abcg2


@<TRIPOS>ATOM
      1 C21        -53.9690    12.8450    -0.3190 ca         1 GQB      -0.054200
      2 C10        -57.8080     9.7070    -7.1910 ca         1 GQB      -0.037200
      3 C02        -55.7200    12.2800    -5.6490 c          1 GQB       0.619300
      4 C03        -56.2960    11.1800    -6.4480 cc         1 GQB      -0.148300
      5 C04        -55.6710    10.4740    -7.4530 cd         1 GQB      -0.193200
      6 C05        -56.6140     9.5260    -7.9480 ca         1 GQB      -0.131800
      7 C06        -56.5860     8.5450    -8.9530 ca         1 GQB      -0.061000
      8 C07        -57.7170     7.7820    -9.1750 ca         1 GQB      -0.158000
      9 C08        -58.8850     7.9710    -8.4090 ca         1 GQB      -0.105000
     10 C09        -58.9490     8.9300    -7.4130 ca         1 GQB      -0.117000
     11 C13        -56.0930    13.9320    -3.8880 c3         1 GQB       0.142300
     12 C14        -55.3530    13.5080    -2.6320 ca         1 GQB      -0.049300
     13 C15        -55.0930    12.1700    -2.3610 ca         1 GQB      -0.012000
     14 C16        -54.3960    11.8560    -1.2030 ca         1 GQB      -0.184000
     15 C18        -53.1560    10.9810     0.7600 cc         1 GQB       0.298700
     16 C22        -54.2330    14.1830    -0.5750 ca         1 GQB      -0.102000
     17 C23        -54.9220    14.4960    -1.7360 ca         1 GQB      -0.063000
     18 N11        -57.5870    10.7140    -6.2930 na         1 GQB      -0.209700
     19 N12        -56.5310    12.8460    -4.7300 ns         1 GQB      -0.526900
     20 N19        -52.5410    10.2890     1.6980 nv         1 GQB      -0.587700
     21 N20        -53.2840    12.3070     0.7700 na         1 GQB      -0.281600
     22 O01        -54.5530    12.6520    -5.8310 o          1 GQB      -0.652100
     23 S17        -53.9070    10.2650    -0.6320 ss         1 GQB       0.191800
     24 H041       -54.6600    10.6310    -7.7890 ha         1 GQB       0.204000
     25 H061       -55.6920     8.3960    -9.5470 ha         1 GQB       0.103000
     26 H071       -57.7110     7.0240    -9.9480 ha         1 GQB       0.099000
     27 H081       -59.7530     7.3530    -8.6070 ha         1 GQB       0.100000
     28 H091       -59.8470     9.0730    -6.8260 ha         1 GQB       0.121000
     29 H131       -55.4490    14.5970    -4.4670 h1         1 GQB       0.070700
     30 H132       -56.9780    14.5040    -3.6020 h1         1 GQB       0.070700
     31 H151       -55.4230    11.3930    -3.0360 ha         1 GQB       0.168000
     32 H221       -53.9050    14.9530     0.1120 ha         1 GQB       0.128000
     33 H231       -55.1310    15.5350    -1.9590 ha         1 GQB       0.136000
     34 H111       -58.2700    11.0700    -5.6000 hn         1 GQB       0.404000
     35 H121       -57.4860    12.4870    -4.5720 hn         1 GQB       0.379500
     36 H191       -52.4380     9.2880     1.6230 hn         1 GQB       0.365500
     37 H192       -52.0840    10.7550     2.4680 hn         1 GQB       0.365500
     38 H201       -52.8920    12.8810     1.5080 hn         1 GQB       0.370000
     39 H1         -59.0770    11.8600    -4.3450 DU         1 GQB      -0.661000
@<TRIPOS>BOND
     1     1    14 ar  
     2     1    16 ar  
     3     1    21 1   
     4     2     6 ar  
     5     2    10 ar  
     6     2    18 1   
     7     3     4 1   
     8     3    19 1   
     9     3    22 2   
    10     4     5 2   
    11     4    18 1   
    12     5     6 1   
    13     5    24 1   
    14     6     7 ar  
    15     7     8 ar  
    16     7    25 1   
    17     8     9 ar  
    18     8    26 1   
    19     9    10 ar  
    20     9    27 1   
    21    10    28 1   
    22    11    12 1   
    23    11    19 1   
    24    11    29 1   
    25    11    30 1   
    26    12    13 ar  
    27    12    17 ar  
    28    13    14 ar  
    29    13    31 1   
    30    14    23 1   
    31    15    20 2   
    32    15    21 1   
    33    15    23 1   
    34    16    17 ar  
    35    16    32 1   
    36    17    33 1   
    37    18    34 1   
    38    19    35 1   
    39    20    36 1   
    40    20    37 1   
    41    21    38 1   
@<TRIPOS>SUBSTRUCTURE
     1 GQB         1 TEMP              0 ****  ****    0 ROOT
