@<TRIPOS>MOLECULE
GQC
   55    58     1     0     0
SMALL
abcg2


@<TRIPOS>ATOM
      1 C10         -1.2510   -72.5000     7.0510 c6         1 GQC      -0.097900
      2 C13          1.1000   -73.3180     5.9440 c6         1 GQC      -0.073400
      3 C15         -1.5660   -72.6480    10.1370 c6         1 GQC       0.056600
      4 C20         -0.1250   -72.9430    13.0490 ca         1 GQC       0.206000
      5 C21         -0.8400   -72.1000    13.9100 ca         1 GQC      -0.088000
      6 C22         -1.1550   -72.5470    15.1760 ca         1 GQC      -0.049900
      7 C02          0.2090   -73.2080     1.3540 ca         1 GQC      -0.059300
      8 C03          0.1880   -73.7890     2.6220 ca         1 GQC      -0.101000
      9 C04         -0.1290   -73.0620     3.7650 ca         1 GQC      -0.097300
     10 C05         -0.4300   -71.7070     3.6260 ca         1 GQC      -0.116000
     11 C06         -0.4220   -71.1140     2.3730 ca         1 GQC      -0.098000
     12 C07         -0.1050   -71.8570     1.2430 ca         1 GQC      -0.095000
     13 C08         -0.1220   -73.7380     5.1140 c6         1 GQC      -0.010400
     14 C09         -1.4150   -73.5280     5.9350 c6         1 GQC      -0.073400
     15 C11         -0.1550   -72.8870     8.0570 c6         1 GQC       0.114300
     16 C12          0.9150   -73.7570     7.3920 c6         1 GQC      -0.097900
     17 N14         -0.7630   -73.5780     9.2690 nx         1 GQC      -0.667000
     18 C16         -0.6740   -71.7450    10.9760 c6         1 GQC       0.183300
     19 N17          0.2520   -72.5120    11.7870 nh         1 GQC      -0.779400
     20 C18          1.0630   -73.3600    10.9400 c6         1 GQC       0.183300
     21 C19          0.2090   -74.3260    10.1360 c6         1 GQC       0.056600
     22 C23         -0.7580   -73.8090    15.5960 ca         1 GQC       0.362900
     23 N24         -0.0770   -74.6030    14.7870 nb         1 GQC      -0.630000
     24 C25          0.2250   -74.2010    13.5630 ca         1 GQC       0.297900
     25 BR2         -2.1080   -71.4340    16.3600 br         1 GQC      -0.038100
     26 H1          -0.9830   -71.5280     6.6360 hc         1 GQC       0.065700
     27 H2          -2.2130   -72.3440     7.5400 hc         1 GQC       0.065700
     28 H3           2.0020   -73.7700     5.5310 hc         1 GQC       0.063700
     29 H4           1.2490   -72.2350     5.8960 hc         1 GQC       0.063700
     30 H5          -2.2250   -72.0610     9.5040 hx         1 GQC       0.101950
     31 H6          -2.1820   -73.2790    10.7770 hx         1 GQC       0.101950
     32 H7          -1.1250   -71.1030    13.6010 ha         1 GQC       0.137000
     33 H8           1.6680   -74.0340     0.0090 hc         1 GQC       0.050367
     34 H9           0.2580   -75.0540     0.2430 hc         1 GQC       0.050367
     35 H10          0.1490   -73.6080    -0.7630 hc         1 GQC       0.050367
     36 H12         -0.6780   -71.1090     4.4940 ha         1 GQC       0.096000
     37 H13         -0.6650   -70.0630     2.2740 ha         1 GQC       0.121000
     38 H14         -0.1060   -71.3830     0.2680 ha         1 GQC       0.125000
     39 H15         -0.0250   -74.8130     4.9330 hc         1 GQC       0.061700
     40 H16         -2.2400   -73.2290     5.2880 hc         1 GQC       0.063700
     41 H17         -1.7160   -74.4830     6.3750 hc         1 GQC       0.063700
     42 H18          0.3180   -71.9820     8.4360 hx         1 GQC       0.094700
     43 H19          0.6190   -74.8110     7.3950 hc         1 GQC       0.065700
     44 H20          1.8570   -73.6900     7.9380 hc         1 GQC       0.065700
     45 H21         -1.4140   -74.2810     8.9080 hn         1 GQC       0.495000
     46 H22         -0.1070   -71.0560    10.3470 h1         1 GQC       0.093950
     47 H23         -1.3280   -71.1250    11.5840 h1         1 GQC       0.093950
     48 H24          1.7960   -73.9210    11.5150 h1         1 GQC       0.093950
     49 H25          1.6450   -72.7170    10.2740 h1         1 GQC       0.093950
     50 H26         -0.3940   -74.9560    10.7910 hx         1 GQC       0.101950
     51 H27          0.8100   -74.9790     9.5130 hx         1 GQC       0.101950
     52 H28         -0.9940   -74.1820    16.5850 h4         1 GQC       0.056100
     53 H29          0.7740   -74.9190    12.9670 h4         1 GQC       0.014100
     54 H11          0.4190   -74.8450     2.7200 ha         1 GQC       0.111000
     55 C01          0.5850   -74.0190     0.1480 c3         1 GQC      -0.053800
@<TRIPOS>BOND
     1     1    14 1   
     2     1    15 1   
     3     1    26 1   
     4     1    27 1   
     5     2    13 1   
     6     2    16 1   
     7     2    28 1   
     8     2    29 1   
     9     3    17 1   
    10     3    18 1   
    11     3    30 1   
    12     3    31 1   
    13     4     5 ar  
    14     4    19 1   
    15     4    24 ar  
    16     5     6 ar  
    17     5    32 1   
    18     6    22 ar  
    19     6    25 1   
    20     7     8 ar  
    21     7    12 ar  
    22     7    55 1   
    23     8     9 ar  
    24     8    54 1   
    25     9    10 ar  
    26     9    13 1   
    27    10    11 ar  
    28    10    36 1   
    29    11    12 ar  
    30    11    37 1   
    31    12    38 1   
    32    13    14 1   
    33    13    39 1   
    34    14    40 1   
    35    14    41 1   
    36    15    16 1   
    37    15    17 1   
    38    15    42 1   
    39    16    43 1   
    40    16    44 1   
    41    17    21 1   
    42    17    45 1   
    43    18    19 1   
    44    18    46 1   
    45    18    47 1   
    46    19    20 1   
    47    20    21 1   
    48    20    48 1   
    49    20    49 1   
    50    21    50 1   
    51    21    51 1   
    52    22    23 ar  
    53    22    52 1   
    54    23    24 ar  
    55    24    53 1   
    56    33    55 1   
    57    34    55 1   
    58    35    55 1   
@<TRIPOS>SUBSTRUCTURE
     1 GQC         1 TEMP              0 ****  ****    0 ROOT
