@<TRIPOS>MOLECULE
GQC
   55    58     1     0     0
SMALL
No Charge or Current Charge


@<TRIPOS>ATOM
      1 C10         -1.3010   -72.7340     7.0890 c6         1 GQC      -0.097900
      2 C13          1.1750   -73.3770     5.9770 c6         1 GQC      -0.073400
      3 C15         -2.0890   -73.7710     9.9210 c6         1 GQC       0.056600
      4 C20         -0.2970   -72.9490    13.1920 ca         1 GQC       0.206000
      5 C21         -0.6500   -71.6470    13.6030 ca         1 GQC      -0.088000
      6 C22         -0.4260   -71.2700    14.9390 ca         1 GQC      -0.049900
      7 C02          0.3410   -72.7140     1.3300 ca         1 GQC      -0.059300
      8 C03          0.2870   -73.4680     2.5180 ca         1 GQC      -0.101000
      9 C04          0.0220   -72.8470     3.7560 ca         1 GQC      -0.097300
     10 C05         -0.1850   -71.4530     3.7920 ca         1 GQC      -0.116000
     11 C06         -0.1300   -70.6950     2.6110 ca         1 GQC      -0.098000
     12 C07          0.1320   -71.3240     1.3820 ca         1 GQC      -0.095000
     13 C08         -0.0310   -73.6900     5.0420 c6         1 GQC      -0.010400
     14 C09         -1.3990   -73.5730     5.7890 c6         1 GQC      -0.073400
     15 C11         -0.2870   -73.3340     8.1140 c6         1 GQC       0.114300
     16 C12          0.9400   -73.9700     7.3870 c6         1 GQC      -0.097900
     17 N14         -0.9480   -74.3650     9.0560 nx         1 GQC      -0.667000
     18 C16         -1.5670   -72.7660    10.9830 c6         1 GQC       0.183300
     19 N17         -0.5050   -73.3800    11.8470 nh         1 GQC      -0.779400
     20 C18          0.6070   -74.0410    11.0870 c6         1 GQC       0.183300
     21 C19          0.0630   -75.0330    10.0220 c6         1 GQC       0.056600
     22 C23          0.1420   -72.1940    15.8360 ca         1 GQC       0.362900
     23 N24          0.4900   -73.4510    15.4690 nb         1 GQC      -0.630000
     24 C25          0.2710   -73.8080    14.1760 ca         1 GQC       0.297900
     25 Br2         -0.8870   -69.5090    15.5300 br         1 GQC      -0.038100
     26 H1          -0.9770   -71.7160     6.8350 hc         1 GQC       0.065700
     27 H2          -2.2980   -72.6080     7.5240 hc         1 GQC       0.065700
     28 H3           2.0950   -73.7900     5.5420 hc         1 GQC       0.063700
     29 H4           1.3350   -72.2930     6.0570 hc         1 GQC       0.063700
     30 H5          -2.8320   -73.3050     9.2690 hx         1 GQC       0.101950
     31 H6          -2.5790   -74.6090    10.4270 hx         1 GQC       0.101950
     32 H7          -1.0750   -70.9340    12.9040 ha         1 GQC       0.137000
     33 H8           1.7100   -73.4570    -0.1780 hc         1 GQC       0.050367
     34 H9           0.2300   -74.4180    -0.0180 hc         1 GQC       0.050367
     35 H10          0.1810   -72.8520    -0.8360 hc         1 GQC       0.050367
     36 H12         -0.3860   -70.9500     4.7340 ha         1 GQC       0.096000
     37 H13         -0.2900   -69.6200     2.6470 ha         1 GQC       0.121000
     38 H14          0.1750   -70.7290     0.4720 ha         1 GQC       0.125000
     39 H15          0.0640   -74.7450     4.7500 hc         1 GQC       0.061700
     40 H16         -2.1620   -73.1480     5.1230 hc         1 GQC       0.063700
     41 H17         -1.7590   -74.5790     6.0460 hc         1 GQC       0.063700
     42 H18          0.0640   -72.5220     8.7610 hx         1 GQC       0.094700
     43 H19          0.7950   -75.0540     7.2810 hc         1 GQC       0.065700
     44 H20          1.8400   -73.8380     8.0020 hc         1 GQC       0.065700
     45 H21         -1.3590   -75.1160     8.4550 hn         1 GQC       0.495000
     46 H22         -1.1780   -71.8720    10.4740 h1         1 GQC       0.093950
     47 H23         -2.4250   -72.4460    11.5930 h1         1 GQC       0.093950
     48 H24          1.2770   -74.5960    11.7590 h1         1 GQC       0.093950
     49 H25          1.2230   -73.2810    10.5830 h1         1 GQC       0.093950
     50 H26         -0.4590   -75.8550    10.5230 hx         1 GQC       0.101950
     51 H27          0.8790   -75.4680     9.4370 hx         1 GQC       0.101950
     52 H28          0.3240   -71.9210    16.8750 h4         1 GQC       0.056100
     53 H29          0.5540   -74.8270    13.9200 h4         1 GQC       0.014100
     54 H11          0.4540   -74.5420     2.4750 ha         1 GQC       0.111000
     55 C01          0.6300   -73.3970     0.0020 c3         1 GQC      -0.053800
@<TRIPOS>BOND
     1     1    14 1   
     2     1    15 1   
     3     1    26 1   
     4     1    27 1   
     5     2    13 1   
     6     2    16 1   
     7     2    28 1   
     8     2    29 1   
     9     3    17 1   
    10     3    18 1   
    11     3    30 1   
    12     3    31 1   
    13     4     5 ar  
    14     4    19 1   
    15     4    24 ar  
    16     5     6 ar  
    17     5    32 1   
    18     6    22 ar  
    19     6    25 1   
    20     7     8 ar  
    21     7    12 ar  
    22     7    55 1   
    23     8     9 ar  
    24     8    54 1   
    25     9    10 ar  
    26     9    13 1   
    27    10    11 ar  
    28    10    36 1   
    29    11    12 ar  
    30    11    37 1   
    31    12    38 1   
    32    13    14 1   
    33    13    39 1   
    34    14    40 1   
    35    14    41 1   
    36    15    16 1   
    37    15    17 1   
    38    15    42 1   
    39    16    43 1   
    40    16    44 1   
    41    17    21 1   
    42    17    45 1   
    43    18    19 1   
    44    18    46 1   
    45    18    47 1   
    46    19    20 1   
    47    20    21 1   
    48    20    48 1   
    49    20    49 1   
    50    21    50 1   
    51    21    51 1   
    52    22    23 ar  
    53    22    52 1   
    54    23    24 ar  
    55    24    53 1   
    56    33    55 1   
    57    34    55 1   
    58    35    55 1   
@<TRIPOS>SUBSTRUCTURE
     1 GQC         1 TEMP              0 ****  ****    0 ROOT
