@<TRIPOS>MOLECULE
GQD
   53    55     1     0     0
SMALL
No Charge or Current Charge


@<TRIPOS>ATOM
      1 C1           4.1350    -1.7480     0.9690 c3         1 GQD      -0.122100
      2 C2           3.2480    -1.6360    -0.3080 c6         1 GQD       0.199500
      3 C4           3.6870    -0.4540    -1.2040 c6         1 GQD      -0.029100
      4 C5           3.2630     0.8990    -0.6450 ca         1 GQD      -0.030300
      5 C6           3.9470     2.0660    -1.0370 ca         1 GQD      -0.152000
      6 C7           3.5710     3.3140    -0.5220 ca         1 GQD       0.131100
      7 C8           2.5110     3.4040     0.3910 ca         1 GQD      -0.206000
      8 C9           1.8210     2.2440     0.7820 ca         1 GQD      -0.054000
      9 C10          2.1830     0.9830     0.2590 ca         1 GQD      -0.100300
     10 C11          1.4190    -0.2820     0.7100 c6         1 GQD       0.306100
     11 N13          1.7840    -1.5370    -0.0240 n3         1 GQD      -0.743600
     12 C14          1.1730    -2.7540     0.5890 c3         1 GQD       0.182800
     13 C15          1.2910    -4.0710    -0.2310 c3         1 GQD      -0.059700
     14 C16          0.6210    -5.2440     0.5190 c3         1 GQD      -0.085600
     15 C17          0.7150    -3.9280    -1.6610 c3         1 GQD      -0.085600
     16 C18         -0.0980    -0.0300     0.6600 ca         1 GQD      -0.128300
     17 C19         -0.8580    -0.0060     1.8450 ca         1 GQD      -0.097500
     18 C20         -2.2440     0.2260     1.7940 ca         1 GQD      -0.130000
     19 C21         -2.8930     0.4360     0.5620 ca         1 GQD       0.008200
     20 C22         -2.1290     0.4100    -0.6230 ca         1 GQD      -0.130000
     21 C23         -0.7440     0.1790    -0.5740 ca         1 GQD      -0.097500
     22 C24         -4.3650     0.6790     0.5430 ce         1 GQD      -0.243200
     23 C25         -5.1940     0.9080    -0.5240 cf         1 GQD      -0.210200
     24 C26         -6.6680     1.1430    -0.4430 c          1 GQD       0.695200
     25 O27         -7.2670     1.3320    -1.4900 o          1 GQD      -0.722500
     26 O28         -7.2110     1.1370     0.6520 o          1 GQD      -0.722500
     27 O29          4.2410     4.4360    -0.9040 oh         1 GQD      -0.542100
     28 H11C         4.0420    -0.8670     1.6150 hc         1 GQD       0.034700
     29 H12C         3.8760    -2.6310     1.5640 hc         1 GQD       0.034700
     30 H13C         5.1930    -1.8440     0.6990 hc         1 GQD       0.034700
     31 H2           3.4480    -2.5420    -0.8970 h1         1 GQD       0.052700
     32 H41C         4.7750    -0.4830    -1.3540 hc         1 GQD       0.053700
     33 H42C         3.2400    -0.5780    -2.2000 hc         1 GQD       0.053700
     34 H6           4.7740     2.0030    -1.7400 ha         1 GQD       0.119000
     35 H8           2.2150     4.3670     0.8000 ha         1 GQD       0.110000
     36 H29          3.8400     5.2050    -0.4450 ho         1 GQD       0.460000
     37 H9           1.0020     2.3260     1.4930 ha         1 GQD       0.121000
     38 H11          1.6870    -0.4230     1.7680 h1         1 GQD       0.026700
     39 H141         1.6040    -2.9240     1.5850 h1         1 GQD       0.035200
     40 H142         0.1000    -2.5820     0.7470 h1         1 GQD       0.035200
     41 H15          2.3520    -4.3300    -0.3220 hc         1 GQD       0.031700
     42 H161         0.7520    -6.1830    -0.0330 hc         1 GQD       0.033700
     43 H162         1.0660    -5.3720     1.5130 hc         1 GQD       0.033700
     44 H163        -0.4540    -5.0660     0.6440 hc         1 GQD       0.033700
     45 H171         1.2520    -3.1570    -2.2260 hc         1 GQD       0.033700
     46 H172         0.8090    -4.8720    -2.2120 hc         1 GQD       0.033700
     47 H173        -0.3460    -3.6520    -1.6280 hc         1 GQD       0.033700
     48 H19         -0.3770    -0.1670     2.8070 ha         1 GQD       0.101000
     49 H23         -0.1670     0.1590    -1.4960 ha         1 GQD       0.101000
     50 H20         -2.8140     0.2410     2.7200 ha         1 GQD       0.114000
     51 H22         -2.5980     0.5680    -1.5900 ha         1 GQD       0.114000
     52 H24         -4.8210     0.6680     1.5350 ha         1 GQD       0.189000
     53 H25         -4.7830     0.9280    -1.5300 ha         1 GQD       0.144000
@<TRIPOS>BOND
     1     1     2 1   
     2     1    28 1   
     3     1    29 1   
     4     1    30 1   
     5     2     3 1   
     6     2    11 1   
     7     2    31 1   
     8     3     4 1   
     9     3    32 1   
    10     3    33 1   
    11     4     5 ar  
    12     4     9 ar  
    13     5     6 ar  
    14     5    34 1   
    15     6     7 ar  
    16     6    27 1   
    17     7     8 ar  
    18     7    35 1   
    19     8     9 ar  
    20     8    37 1   
    21     9    10 1   
    22    10    11 1   
    23    10    16 1   
    24    10    38 1   
    25    11    12 1   
    26    12    13 1   
    27    12    39 1   
    28    12    40 1   
    29    13    14 1   
    30    13    15 1   
    31    13    41 1   
    32    14    42 1   
    33    14    43 1   
    34    14    44 1   
    35    15    45 1   
    36    15    46 1   
    37    15    47 1   
    38    16    17 ar  
    39    16    21 ar  
    40    17    18 ar  
    41    17    48 1   
    42    18    19 ar  
    43    18    50 1   
    44    19    20 ar  
    45    19    22 1   
    46    20    21 ar  
    47    20    51 1   
    48    21    49 1   
    49    22    23 2   
    50    22    52 1   
    51    23    24 1   
    52    23    53 1   
    53    24    25 1   
    54    24    26 1   
    55    27    36 1   
@<TRIPOS>SUBSTRUCTURE
     1 GQD         1 TEMP              0 ****  ****    0 ROOT
