@<TRIPOS>MOLECULE
GQD
   53    55     1     0     0
SMALL
bcc


@<TRIPOS>ATOM
      1 C1           4.2360    -1.6320     0.7970 c3         1 GQD      -0.122100
      2 C2           3.2060    -1.6030    -0.3350 c6         1 GQD       0.199500
      3 C4           3.4420    -0.4450    -1.2940 c6         1 GQD      -0.029100
      4 C5           3.0970     0.8600    -0.6420 ca         1 GQD      -0.030300
      5 C6           3.7240     2.0360    -1.0390 ca         1 GQD      -0.170000
      6 C7           3.4370     3.2440    -0.4160 ca         1 GQD       0.131100
      7 C8           2.5210     3.2680     0.6340 ca         1 GQD      -0.224000
      8 C9           1.9010     2.0940     1.0230 ca         1 GQD      -0.072000
      9 C10          2.1640     0.8810     0.3920 ca         1 GQD      -0.100300
     10 C11          1.4420    -0.3730     0.8560 c6         1 GQD       0.306100
     11 N13          1.8160    -1.5490     0.0920 n3         1 GQD      -0.743600
     12 C14          1.3160    -2.7680     0.6960 c3         1 GQD       0.182800
     13 C15          1.2500    -3.9660    -0.2530 c3         1 GQD      -0.059700
     14 C16          0.5930    -5.1370     0.4700 c3         1 GQD      -0.085600
     15 C17          0.5050    -3.6230    -1.5360 c3         1 GQD      -0.085600
     16 C18         -0.0530    -0.1400     0.7400 ca         1 GQD      -0.128300
     17 C19         -0.8240     0.1500     1.8560 ca         1 GQD      -0.115500
     18 C20         -2.1810     0.4230     1.7310 ca         1 GQD      -0.148000
     19 C21         -2.8100     0.4060     0.4870 ca         1 GQD       0.008200
     20 C22         -2.0260     0.0960    -0.6320 ca         1 GQD      -0.148000
     21 C23         -0.6770    -0.1710    -0.5080 ca         1 GQD      -0.115500
     22 C24         -4.2400     0.7090     0.4090 ce         1 GQD      -0.193200
     23 C25         -5.0010     0.7450    -0.6870 cf         1 GQD      -0.160200
     24 C26         -6.4760     1.0760    -0.6610 c          1 GQD       0.905800
     25 O27         -7.0480     1.0570    -1.7700 o          1 GQD      -0.827800
     26 O28         -6.9960     1.3390     0.4420 o          1 GQD      -0.827800
     27 O29          4.0730     4.3510    -0.8550 oh         1 GQD      -0.503100
     28 H11C         4.2120    -0.7220     1.3990 hc         1 GQD       0.034700
     29 H12C         4.0740    -2.4780     1.4650 hc         1 GQD       0.034700
     30 H13C         5.2430    -1.7300     0.3880 hc         1 GQD       0.034700
     31 H2           3.3220    -2.5220    -0.9120 h1         1 GQD       0.052700
     32 H41C         4.4800    -0.4340    -1.6340 hc         1 GQD       0.053700
     33 H42C         2.8240    -0.5950    -2.1850 hc         1 GQD       0.053700
     34 H6           4.4560     2.0090    -1.8390 ha         1 GQD       0.137000
     35 H8           2.2940     4.1960     1.1460 ha         1 GQD       0.128000
     36 H29          3.8060     5.1170    -0.3350 ho         1 GQD       0.421000
     37 H9           1.1910     2.1310     1.8410 ha         1 GQD       0.139000
     38 H11          1.6680    -0.5040     1.9300 h1         1 GQD       0.026700
     39 H141         1.8860    -3.0520     1.5970 h1         1 GQD       0.035200
     40 H142         0.2960    -2.5730     1.0400 h1         1 GQD       0.035200
     41 H15          2.2670    -4.2760    -0.5180 hc         1 GQD       0.031700
     42 H161         0.5660    -6.0260    -0.1620 hc         1 GQD       0.033700
     43 H162         1.1300    -5.3970     1.3840 hc         1 GQD       0.033700
     44 H163        -0.4360    -4.8960     0.7470 hc         1 GQD       0.033700
     45 H171         0.9920    -2.8110    -2.0780 hc         1 GQD       0.033700
     46 H172         0.4500    -4.4880    -2.1990 hc         1 GQD       0.033700
     47 H173        -0.5160    -3.3000    -1.3190 hc         1 GQD       0.033700
     48 H19         -0.3650     0.1640     2.8380 ha         1 GQD       0.119000
     49 H23         -0.0950    -0.4180    -1.3860 ha         1 GQD       0.119000
     50 H20         -2.7610     0.6490     2.6190 ha         1 GQD       0.132000
     51 H22         -2.4740     0.0630    -1.6180 ha         1 GQD       0.132000
     52 H24         -4.7180     0.9290     1.3590 ha         1 GQD       0.139000
     53 H25         -4.5760     0.5320    -1.6640 ha         1 GQD       0.094000
@<TRIPOS>BOND
     1     1     2 1   
     2     1    28 1   
     3     1    29 1   
     4     1    30 1   
     5     2     3 1   
     6     2    11 1   
     7     2    31 1   
     8     3     4 1   
     9     3    32 1   
    10     3    33 1   
    11     4     5 ar  
    12     4     9 ar  
    13     5     6 ar  
    14     5    34 1   
    15     6     7 ar  
    16     6    27 1   
    17     7     8 ar  
    18     7    35 1   
    19     8     9 ar  
    20     8    37 1   
    21     9    10 1   
    22    10    11 1   
    23    10    16 1   
    24    10    38 1   
    25    11    12 1   
    26    12    13 1   
    27    12    39 1   
    28    12    40 1   
    29    13    14 1   
    30    13    15 1   
    31    13    41 1   
    32    14    42 1   
    33    14    43 1   
    34    14    44 1   
    35    15    45 1   
    36    15    46 1   
    37    15    47 1   
    38    16    17 ar  
    39    16    21 ar  
    40    17    18 ar  
    41    17    48 1   
    42    18    19 ar  
    43    18    50 1   
    44    19    20 ar  
    45    19    22 1   
    46    20    21 ar  
    47    20    51 1   
    48    21    49 1   
    49    22    23 2   
    50    22    52 1   
    51    23    24 1   
    52    23    53 1   
    53    24    25 1   
    54    24    26 1   
    55    27    36 1   
@<TRIPOS>SUBSTRUCTURE
     1 GQD         1 TEMP              0 ****  ****    0 ROOT
