@<TRIPOS>MOLECULE
GQE
   35    36     1     0     0
SMALL
bcc


@<TRIPOS>ATOM
      1 O15          1.0540    -1.8320     0.3300 o          1 GQE      -0.576100
      2 C14          1.6010    -0.7730     0.0760 c          1 GQE       0.685700
      3 C16          3.0900    -0.6640     0.0130 ca         1 GQE      -0.153600
      4 C21          3.8410    -1.5850     0.7410 ca         1 GQE      -0.088000
      5 C20          5.2250    -1.5350     0.7170 ca         1 GQE      -0.137500
      6 C19          5.8750    -0.5780    -0.0510 ca         1 GQE      -0.105000
      7 C18          5.1340     0.3300    -0.7950 ca         1 GQE      -0.137500
      8 C17          3.7470     0.2910    -0.7610 ca         1 GQE      -0.088000
      9 N13          0.9310     0.3860    -0.1500 ns         1 GQE      -0.464100
     10 C12         -0.4520     0.5860    -0.1250 ca         1 GQE       0.035600
     11 C03         -0.8980     1.8990     0.1410 ca         1 GQE       0.115100
     12 O02          0.0680     2.8040     0.3500 os         1 GQE      -0.334900
     13 C01         -0.2940     4.1520     0.5960 c3         1 GQE       0.129700
     14 C11         -1.3850    -0.4060    -0.3720 ca         1 GQE      -0.065000
     15 C06         -2.7520    -0.1280    -0.3200 ca         1 GQE      -0.169600
     16 C05         -3.1800     1.1660    -0.0600 ca         1 GQE      -0.088000
     17 C04         -2.2560     2.1780     0.1610 ca         1 GQE      -0.205000
     18 C07         -3.6930    -1.2500    -0.5920 c          1 GQE       0.677700
     19 O08         -3.3940    -2.2080    -1.2820 o          1 GQE      -0.551100
     20 N09         -4.9140    -1.0960    -0.0240 ns         1 GQE      -0.441400
     21 O10         -5.7900    -2.1410    -0.0810 oh         1 GQE      -0.396100
     22 H1           3.3400    -2.3380     1.3350 ha         1 GQE       0.143000
     23 H2           5.7980    -2.2470     1.2970 ha         1 GQE       0.135500
     24 H3           6.9570    -0.5430    -0.0750 ha         1 GQE       0.134000
     25 H4           5.6350     1.0690    -1.4060 ha         1 GQE       0.135500
     26 H5           3.1950     0.9980    -1.3680 ha         1 GQE       0.143000
     27 H6           1.4820     1.2290    -0.2020 hn         1 GQE       0.335500
     28 H7           0.6350     4.7000     0.7250 h1         1 GQE       0.045367
     29 H8          -0.8470     4.5790    -0.2440 h1         1 GQE       0.045367
     30 H9          -0.8930     4.2460     1.5040 h1         1 GQE       0.045367
     31 H10         -1.0620    -1.4070    -0.6050 ha         1 GQE       0.186000
     32 H11         -4.2310     1.4190    -0.0520 ha         1 GQE       0.134000
     33 H12         -2.6140     3.1800     0.3490 ha         1 GQE       0.139000
     34 H13         -5.0320    -0.5170     0.7950 hn         1 GQE       0.326500
     35 H14         -6.4590    -1.8890    -0.7300 ho         1 GQE       0.410000
@<TRIPOS>BOND
     1     1     2 2   
     2     2     3 1   
     3     2     9 1   
     4     3     4 ar  
     5     3     8 ar  
     6     4     5 ar  
     7     4    22 1   
     8     5     6 ar  
     9     5    23 1   
    10     6     7 ar  
    11     6    24 1   
    12     7     8 ar  
    13     7    25 1   
    14     8    26 1   
    15     9    10 1   
    16     9    27 1   
    17    10    11 ar  
    18    10    14 ar  
    19    11    12 1   
    20    11    17 ar  
    21    12    13 1   
    22    13    28 1   
    23    13    29 1   
    24    13    30 1   
    25    14    15 ar  
    26    14    31 1   
    27    15    16 ar  
    28    15    18 1   
    29    16    17 ar  
    30    16    32 1   
    31    17    33 1   
    32    18    19 2   
    33    18    20 1   
    34    20    21 1   
    35    20    34 1   
    36    21    35 1   
@<TRIPOS>SUBSTRUCTURE
     1 GQE         1 TEMP              0 ****  ****    0 ROOT
