@<TRIPOS>MOLECULE
GQE
   35    36     1     0     0
SMALL
No Charge or Current Charge


@<TRIPOS>ATOM
      1 O15          1.2000    -2.0490    -0.0380 o          1 GQE      -0.576100
      2 C14          1.6930    -0.9260    -0.0040 c          1 GQE       0.618700
      3 C16          3.2000    -0.7320     0.0320 ca         1 GQE      -0.153600
      4 C21          4.0480    -1.8650     0.0270 ca         1 GQE      -0.070000
      5 C20          5.4460    -1.7190     0.0600 ca         1 GQE      -0.119500
      6 C19          6.0210    -0.4410     0.1000 ca         1 GQE      -0.087000
      7 C18          5.1950     0.6940     0.1050 ca         1 GQE      -0.119500
      8 C17          3.7960     0.5550     0.0720 ca         1 GQE      -0.070000
      9 N13          0.9350     0.2380     0.0040 ns         1 GQE      -0.138000
     10 C12         -0.4690     0.4880    -0.0220 ca         1 GQE      -0.057000
     11 C03         -0.8860     1.8350     0.0030 ca         1 GQE       0.115100
     12 O02          0.0870     2.8190     0.0510 os         1 GQE      -0.358100
     13 C01         -0.2330     4.2220     0.0800 c3         1 GQE       0.152900
     14 C11         -1.4430    -0.5360    -0.0710 ca         1 GQE      -0.047000
     15 C06         -2.8240    -0.2330    -0.0930 ca         1 GQE      -0.169600
     16 C05         -3.2200     1.1240    -0.0690 ca         1 GQE      -0.070000
     17 C04         -2.2600     2.1460    -0.0210 ca         1 GQE      -0.187000
     18 C07         -3.8320    -1.3670    -0.1460 c          1 GQE       0.610700
     19 O08         -3.4850    -2.5390    -0.2320 o          1 GQE      -0.551100
     20 N09         -5.1780    -1.0090    -0.1060 ns         1 GQE      -0.374400
     21 O10         -6.2120    -2.0050     0.0990 oh         1 GQE      -0.435100
     22 H1           3.6270    -2.8680    -0.0030 ha         1 GQE       0.125000
     23 H2           6.0830    -2.6010     0.0560 ha         1 GQE       0.117500
     24 H3           7.1030    -0.3290     0.1250 ha         1 GQE       0.116000
     25 H4           5.6400     1.6860     0.1360 ha         1 GQE       0.117500
     26 H5           3.1950     1.4610     0.0780 ha         1 GQE       0.125000
     27 H6           1.4840     1.0860     0.0340 hn         1 GQE       0.169000
     28 H7           0.6860     4.8210     0.1170 h1         1 GQE       0.045367
     29 H8          -0.7920     4.5140    -0.8180 h1         1 GQE       0.045367
     30 H9          -0.8330     4.4670     0.9650 h1         1 GQE       0.045367
     31 H10         -1.1430    -1.5790    -0.0910 ha         1 GQE       0.168000
     32 H11         -4.2690     1.4080    -0.0930 ha         1 GQE       0.116000
     33 H12         -2.6050     3.1760    -0.0050 ha         1 GQE       0.121000
     34 H13         -5.4310    -0.0510     0.1220 hn         1 GQE       0.326500
     35 H14         -6.8610    -1.8170    -0.6190 ho         1 GQE       0.449000
@<TRIPOS>BOND
     1     1     2 2   
     2     2     3 1   
     3     2     9 1   
     4     3     4 ar  
     5     3     8 ar  
     6     4     5 ar  
     7     4    22 1   
     8     5     6 ar  
     9     5    23 1   
    10     6     7 ar  
    11     6    24 1   
    12     7     8 ar  
    13     7    25 1   
    14     8    26 1   
    15     9    10 1   
    16     9    27 1   
    17    10    11 ar  
    18    10    14 ar  
    19    11    12 1   
    20    11    17 ar  
    21    12    13 1   
    22    13    28 1   
    23    13    29 1   
    24    13    30 1   
    25    14    15 ar  
    26    14    31 1   
    27    15    16 ar  
    28    15    18 1   
    29    16    17 ar  
    30    16    32 1   
    31    17    33 1   
    32    18    19 2   
    33    18    20 1   
    34    20    21 1   
    35    20    34 1   
    36    21    35 1   
@<TRIPOS>SUBSTRUCTURE
     1 GQE         1 TEMP              0 ****  ****    0 ROOT
