@<TRIPOS>MOLECULE
GQF
   51    54     1     0     0
SMALL
No Charge or Current Charge


@<TRIPOS>ATOM
      1 C01          8.8950     9.0110   -11.9560 c3         1 GQF      -0.190100
      2 C02          8.0810     8.8560   -10.6680 c          1 GQF       0.612700
      3 C04          8.4150     7.8250    -9.6070 cc         1 GQF      -0.262600
      4 C05          7.4660     7.4280    -8.6780 cd         1 GQF      -0.076300
      5 C06          6.0280     7.8490    -8.4770 c3         1 GQF      -0.030800
      6 C08          9.3500     6.1960    -8.2990 cd         1 GQF      -0.218500
      7 C09          9.6280     7.0770    -9.3370 cc         1 GQF      -0.055300
      8 C10         10.9500     7.4610   -10.0220 c5         1 GQF      -0.003400
      9 C11         12.1700     7.6890    -9.0660 c5         1 GQF      -0.075900
     10 C12         13.4080     7.1510    -9.8580 c5         1 GQF      -0.082400
     11 C13         12.8930     6.9880   -11.3140 c5         1 GQF      -0.082400
     12 C14         11.4590     6.4480   -11.0890 c5         1 GQF      -0.075900
     13 C15         10.1140     5.1640    -7.6220 cd         1 GQF       0.414500
     14 C16         11.3640     4.7360    -7.9980 cc         1 GQF      -0.272000
     15 C18         10.4080     3.5840    -6.0940 cc         1 GQF       0.723300
     16 C21         10.9640     1.6210    -4.6140 c6         1 GQF       0.174300
     17 C22         10.8770     1.2950    -3.0880 c6         1 GQF       0.142800
     18 C24          8.6820     2.3710    -2.9270 c6         1 GQF       0.142800
     19 C25          8.7060     2.7240    -4.4480 c6         1 GQF       0.174300
     20 N07          8.0430     6.4370    -7.8930 na         1 GQF      -0.078000
     21 N19          9.5610     4.4900    -6.5430 nd         1 GQF      -0.771000
     22 N20         10.0960     2.7780    -5.0150 nh         1 GQF      -0.756300
     23 N23          9.4740     1.1490    -2.6040 n7         1 GQF      -0.843400
     24 O03          7.0910     9.5710   -10.5660 o          1 GQF      -0.562100
     25 S17         11.9290     3.4710    -6.9500 ss         1 GQF      -0.105400
     26 H1           8.2780     9.4140   -12.7680 hc         1 GQF       0.057033
     27 H2           9.7130     9.7160   -11.7790 hc         1 GQF       0.057033
     28 H3           9.3560     8.0650   -12.2420 hc         1 GQF       0.057033
     29 H4           5.4460     7.7220    -9.3970 hc         1 GQF       0.055700
     30 H5           5.5400     7.2540    -7.6960 hc         1 GQF       0.055700
     31 H6           5.9630     8.9010    -8.1740 hc         1 GQF       0.055700
     32 H7          10.8400     8.4320   -10.4970 hc         1 GQF       0.050700
     33 H8          12.2830     8.7580    -8.8490 hc         1 GQF       0.046700
     34 H9          12.0670     7.2120    -8.0880 hc         1 GQF       0.046700
     35 H10         13.7590     6.1950    -9.4550 hc         1 GQF       0.040450
     36 H11         14.2600     7.8390    -9.8020 hc         1 GQF       0.040450
     37 H12         13.5120     6.2980   -11.9000 hc         1 GQF       0.040450
     38 H13         12.8830     7.9470   -11.8460 hc         1 GQF       0.040450
     39 H14         10.8710     6.4710   -12.0110 hc         1 GQF       0.046700
     40 H15         11.4500     5.4080   -10.7560 hc         1 GQF       0.046700
     41 H16         11.9950     5.0500    -8.8020 h4         1 GQF       0.171000
     42 H18         12.0200     1.8140    -4.8470 h1         1 GQF       0.053450
     43 H19         11.4400     0.3720    -2.8830 h1         1 GQF       0.065700
     44 H20         11.3700     2.1040    -2.5280 h1         1 GQF       0.065700
     45 H21          9.0870     3.2250    -2.3630 h1         1 GQF       0.065700
     46 H22          7.6390     2.2360    -2.6030 h1         1 GQF       0.065700
     47 H23          8.1860     3.6850    -4.5730 h1         1 GQF       0.053450
     48 H24          8.1180     1.9730    -4.9960 h1         1 GQF       0.053450
     49 H25          7.5820     5.9400    -7.1370 hn         1 GQF       0.365000
     50 H26          9.0470     0.3530    -3.0960 hn         1 GQF       0.407000
     51 H17         10.6690     0.7290    -5.1850 h1         1 GQF       0.053450
@<TRIPOS>BOND
     1     1     2 1   
     2     1    26 1   
     3     1    27 1   
     4     1    28 1   
     5     2     3 1   
     6     2    24 2   
     7     3     4 2   
     8     3     7 1   
     9     4     5 1   
    10     4    20 1   
    11     5    29 1   
    12     5    30 1   
    13     5    31 1   
    14     6     7 2   
    15     6    13 1   
    16     6    20 1   
    17     7     8 1   
    18     8     9 1   
    19     8    12 1   
    20     8    32 1   
    21     9    10 1   
    22     9    33 1   
    23     9    34 1   
    24    10    11 1   
    25    10    35 1   
    26    10    36 1   
    27    11    12 1   
    28    11    37 1   
    29    11    38 1   
    30    12    39 1   
    31    12    40 1   
    32    13    14 2   
    33    13    21 1   
    34    14    25 1   
    35    14    41 1   
    36    15    21 2   
    37    15    22 1   
    38    15    25 1   
    39    16    17 1   
    40    16    22 1   
    41    16    42 1   
    42    16    51 1   
    43    17    23 1   
    44    17    43 1   
    45    17    44 1   
    46    18    19 1   
    47    18    23 1   
    48    18    45 1   
    49    18    46 1   
    50    19    22 1   
    51    19    47 1   
    52    19    48 1   
    53    20    49 1   
    54    23    50 1   
@<TRIPOS>SUBSTRUCTURE
     1 GQF         1 TEMP              0 ****  ****    0 ROOT
