@<TRIPOS>MOLECULE
GQF
   51    54     1     0     0
SMALL
bcc


@<TRIPOS>ATOM
      1 C01          8.8540     9.1280   -11.7150 c3         1 GQF      -0.190100
      2 C02          8.0330     8.8540   -10.4790 c          1 GQF       0.612700
      3 C04          8.4200     7.7950    -9.5470 cc         1 GQF      -0.262600
      4 C05          7.4900     7.2270    -8.6740 cd         1 GQF      -0.025600
      5 C06          6.0500     7.5030    -8.4240 c3         1 GQF      -0.030800
      6 C08          9.4390     6.1460    -8.3950 cd         1 GQF      -0.167800
      7 C09          9.6710     7.1120    -9.3570 cc         1 GQF      -0.055300
      8 C10         10.9750     7.4620   -10.0120 c5         1 GQF      -0.003400
      9 C11         12.1880     7.6730    -9.0690 c5         1 GQF      -0.075900
     10 C12         13.4130     7.1270    -9.8280 c5         1 GQF      -0.082400
     11 C13         12.9340     6.8810   -11.2620 c5         1 GQF      -0.082400
     12 C14         11.4690     6.4890   -11.0940 c5         1 GQF      -0.075900
     13 C15         10.2210     5.1070    -7.7410 cd         1 GQF       0.479800
     14 C16         11.4300     4.5980    -8.0930 cc         1 GQF      -0.210400
     15 C18         10.4030     3.6070    -6.1180 cc         1 GQF       0.723300
     16 C21         10.8630     1.7070    -4.6780 c6         1 GQF       0.174300
     17 C22         10.7580     1.3930    -3.1900 c6         1 GQF       0.142800
     18 C24          8.7190     2.6080    -3.0110 c6         1 GQF       0.142800
     19 C25          8.7470     2.9570    -4.4920 c6         1 GQF       0.174300
     20 N07          8.1230     6.2520    -8.0160 na         1 GQF      -0.129100
     21 N19          9.6470     4.5280    -6.6320 nd         1 GQF      -0.771000
     22 N20         10.1130     2.9100    -4.9980 nh         1 GQF      -0.756300
     23 N23          9.3990     1.3690    -2.6880 n7         1 GQF      -0.788200
     24 O03          7.0150     9.5040   -10.2890 o          1 GQF      -0.562100
     25 S17         11.8960     3.3500    -6.9930 ss         1 GQF      -0.250300
     26 H1           8.2180     9.5750   -12.4780 hc         1 GQF       0.057033
     27 H2           9.6450     9.8480   -11.4920 hc         1 GQF       0.057033
     28 H3           9.3240     8.2350   -12.1220 hc         1 GQF       0.057033
     29 H4           5.4770     7.5170    -9.3500 hc         1 GQF       0.055700
     30 H5           5.6240     6.7360    -7.7760 hc         1 GQF       0.055700
     31 H6           5.9040     8.4690    -7.9420 hc         1 GQF       0.055700
     32 H7          10.8370     8.4160   -10.5170 hc         1 GQF       0.050700
     33 H8          12.2950     8.7360    -8.8470 hc         1 GQF       0.046700
     34 H9          12.0650     7.1710    -8.1090 hc         1 GQF       0.046700
     35 H10         13.7390     6.1840    -9.3820 hc         1 GQF       0.040450
     36 H11         14.2690     7.8010    -9.7840 hc         1 GQF       0.040450
     37 H12         13.5260     6.1280   -11.7840 hc         1 GQF       0.040450
     38 H13         12.9970     7.8040   -11.8450 hc         1 GQF       0.040450
     39 H14         10.8920     6.5790   -12.0170 hc         1 GQF       0.046700
     40 H15         11.3740     5.4500   -10.7700 hc         1 GQF       0.046700
     41 H16         12.0640     4.8430    -8.9260 h4         1 GQF       0.189000
     42 H18         11.9170     1.8510    -4.9230 h1         1 GQF       0.053450
     43 H19         11.2350     0.4310    -3.0000 h1         1 GQF       0.065700
     44 H20         11.3170     2.1470    -2.6290 h1         1 GQF       0.065700
     45 H21          9.1900     3.4160    -2.4420 h1         1 GQF       0.065700
     46 H22          7.6800     2.5490    -2.6830 h1         1 GQF       0.065700
     47 H23          8.3480     3.9570    -4.6510 h1         1 GQF       0.053450
     48 H24          8.1150     2.2560    -5.0550 h1         1 GQF       0.053450
     49 H25          7.7080     5.6530    -7.3170 hn         1 GQF       0.314700
     50 H26          8.8970     0.5890    -3.0990 hn         1 GQF       0.351800
     51 H17         10.4980     0.8580    -5.2710 h1         1 GQF       0.053450
@<TRIPOS>BOND
     1     1     2 1   
     2     1    26 1   
     3     1    27 1   
     4     1    28 1   
     5     2     3 1   
     6     2    24 2   
     7     3     4 2   
     8     3     7 1   
     9     4     5 1   
    10     4    20 1   
    11     5    29 1   
    12     5    30 1   
    13     5    31 1   
    14     6     7 2   
    15     6    13 1   
    16     6    20 1   
    17     7     8 1   
    18     8     9 1   
    19     8    12 1   
    20     8    32 1   
    21     9    10 1   
    22     9    33 1   
    23     9    34 1   
    24    10    11 1   
    25    10    35 1   
    26    10    36 1   
    27    11    12 1   
    28    11    37 1   
    29    11    38 1   
    30    12    39 1   
    31    12    40 1   
    32    13    14 2   
    33    13    21 1   
    34    14    25 1   
    35    14    41 1   
    36    15    21 2   
    37    15    22 1   
    38    15    25 1   
    39    16    17 1   
    40    16    22 1   
    41    16    42 1   
    42    16    51 1   
    43    17    23 1   
    44    17    43 1   
    45    17    44 1   
    46    18    19 1   
    47    18    23 1   
    48    18    45 1   
    49    18    46 1   
    50    19    22 1   
    51    19    47 1   
    52    19    48 1   
    53    20    49 1   
    54    23    50 1   
@<TRIPOS>SUBSTRUCTURE
     1 GQF         1 TEMP              0 ****  ****    0 ROOT
