@<TRIPOS>MOLECULE
GQG
   43    45     1     0     0
SMALL
abcg2


@<TRIPOS>ATOM
      1 CAA          5.6360     2.1240     1.0350 c3         1 GQG       0.035900
      2 NBE          5.1350     1.4740    -0.1630 nh         1 GQG      -0.276700
      3 CAB          5.6470     1.8750    -1.4610 c3         1 GQG       0.035900
      4 CBA          4.2110     0.5220    -0.0720 cc         1 GQG       0.434900
      5 CAM          3.6790     0.1020     1.1760 cc         1 GQG      -0.383100
      6 CAP          2.7280    -0.8690     1.2250 cd         1 GQG       0.075500
      7 CAL          3.6980    -0.1400    -1.2190 cc         1 GQG      -0.383100
      8 CAO          2.7500    -1.1060    -1.0870 cd         1 GQG       0.075500
      9 NBG          2.2650    -1.4750     0.1140 na         1 GQG      -0.421200
     10 CAS          1.1700    -2.4530     0.2040 c3         1 GQG       0.253100
     11 CAX         -0.1690    -1.7730     0.1610 ca         1 GQG      -0.166300
     12 CAG         -0.7580    -1.4430    -1.0550 ca         1 GQG      -0.084000
     13 CAK         -1.9710    -0.7750    -1.0940 ca         1 GQG      -0.099500
     14 CAF         -0.8270    -1.4290     1.3370 ca         1 GQG      -0.084000
     15 CAJ         -2.0410    -0.7630     1.3000 ca         1 GQG      -0.099500
     16 CAZ         -2.6330    -0.4210     0.0830 cp         1 GQG       0.023000
     17 CAY         -3.9260     0.2890     0.0390 cp         1 GQG      -0.070000
     18 CAI         -4.9340    -0.0020     0.9600 ca         1 GQG      -0.090000
     19 CAE         -6.1500     0.6640     0.9150 ca         1 GQG      -0.106500
     20 CAH         -4.1690     1.2660    -0.9280 ca         1 GQG      -0.090000
     21 CAD         -5.3850     1.9330    -0.9730 ca         1 GQG      -0.106500
     22 CAW         -6.3800     1.6340    -0.0520 ca         1 GQG      -0.086000
     23 HAA1         6.3540     2.8860     0.7540 h1         1 GQG       0.069367
     24 HAA2         4.8330     2.6080     1.5910 h1         1 GQG       0.069367
     25 HAA3         6.1380     1.4140     1.6940 h1         1 GQG       0.069367
     26 HAB1         6.1120     1.0380    -1.9820 h1         1 GQG       0.069367
     27 HAB2         4.8550     2.2830    -2.0910 h1         1 GQG       0.069367
     28 HAB3         6.3990     2.6450    -1.3240 h1         1 GQG       0.069367
     29 HAM          4.0050     0.5300     2.1110 ha         1 GQG       0.230000
     30 HAL          4.0390     0.0940    -2.2150 ha         1 GQG       0.230000
     31 HAP          2.3100    -1.1970     2.1650 h4         1 GQG       0.238500
     32 HAO          2.3520    -1.6200    -1.9490 h4         1 GQG       0.238500
     33 HAS1         1.2900    -3.1560    -0.6190 h1         1 GQG       0.087700
     34 HAS2         1.3010    -3.0130     1.1290 h1         1 GQG       0.087700
     35 HAG         -0.2780    -1.7170    -1.9870 ha         1 GQG       0.110000
     36 HAF         -0.3900    -1.6810     2.2960 ha         1 GQG       0.110000
     37 HAK         -2.4170    -0.5500    -2.0540 ha         1 GQG       0.133000
     38 HAJ         -2.5230    -0.4950     2.2310 ha         1 GQG       0.133000
     39 HAI         -4.7770    -0.7690     1.7080 ha         1 GQG       0.112500
     40 HAH         -3.3960     1.5230    -1.6420 ha         1 GQG       0.112500
     41 HAE         -6.9220     0.4180     1.6310 ha         1 GQG       0.123000
     42 HAW         -7.3290     2.1540    -0.0870 ha         1 GQG       0.125000
     43 HAD         -5.5500     2.6920    -1.7260 ha         1 GQG       0.123000
@<TRIPOS>BOND
     1     1     2 1   
     2     1    23 1   
     3     1    24 1   
     4     1    25 1   
     5     2     3 1   
     6     2     4 2   
     7     3    26 1   
     8     3    27 1   
     9     3    28 1   
    10     4     5 1   
    11     4     7 1   
    12     5     6 2   
    13     5    29 1   
    14     6     9 1   
    15     6    31 1   
    16     7     8 2   
    17     7    30 1   
    18     8     9 1   
    19     8    32 1   
    20     9    10 1   
    21    10    11 1   
    22    10    33 1   
    23    10    34 1   
    24    11    12 ar  
    25    11    14 ar  
    26    12    13 ar  
    27    12    35 1   
    28    13    16 ar  
    29    13    37 1   
    30    14    15 ar  
    31    14    36 1   
    32    15    16 ar  
    33    15    38 1   
    34    16    17 1   
    35    17    18 ar  
    36    17    20 ar  
    37    18    19 ar  
    38    18    39 1   
    39    19    22 ar  
    40    19    41 1   
    41    20    21 ar  
    42    20    40 1   
    43    21    22 ar  
    44    21    43 1   
    45    22    42 1   
@<TRIPOS>SUBSTRUCTURE
     1 GQG         1 TEMP              0 ****  ****    0 ROOT
