@<TRIPOS>MOLECULE
GQG
   43    45     1     0     0
SMALL
No Charge or Current Charge


@<TRIPOS>ATOM
      1 CAA          5.9900     2.2260     0.6400 c3         1 GQG       0.035900
      2 NBE          5.4440     1.3740    -0.4370 nh         1 GQG      -0.276700
      3 CAB          6.0750     1.5220    -1.7640 c3         1 GQG       0.035900
      4 CBA          4.3950     0.4840    -0.2130 cc         1 GQG       0.434900
      5 CAM          3.5060     0.6450     0.8720 cc         1 GQG      -0.383100
      6 CAP          2.4610    -0.2190     1.1130 cd         1 GQG       0.075500
      7 CAL          4.1690    -0.6230    -1.0630 cc         1 GQG      -0.383100
      8 CAO          3.1400    -1.5170    -0.8650 cd         1 GQG       0.075500
      9 NBG          2.2740    -1.3160     0.2380 na         1 GQG      -0.421200
     10 CAS          1.1510    -2.2540     0.4820 c3         1 GQG       0.253100
     11 CAX         -0.2270    -1.5960     0.3840 ca         1 GQG      -0.166300
     12 CAG         -0.5150    -0.6620    -0.6310 ca         1 GQG      -0.084000
     13 CAK         -1.7850    -0.0660    -0.7110 ca         1 GQG      -0.099500
     14 CAF         -1.2340    -1.9300     1.3100 ca         1 GQG      -0.084000
     15 CAJ         -2.5040    -1.3340     1.2260 ca         1 GQG      -0.099500
     16 CAZ         -2.8070    -0.3880     0.2160 cp         1 GQG       0.023000
     17 CAY         -4.1610     0.2480     0.1290 cp         1 GQG      -0.070000
     18 CAI         -5.3340    -0.4760     0.4630 ca         1 GQG      -0.090000
     19 CAE         -6.6050     0.1200     0.3810 ca         1 GQG      -0.106500
     20 CAH         -4.3130     1.5950    -0.2910 ca         1 GQG      -0.090000
     21 CAD         -5.5830     2.1920    -0.3720 ca         1 GQG      -0.106500
     22 CAW         -6.7300     1.4550    -0.0360 ca         1 GQG      -0.086000
     23 HAA1         7.0100     2.5550     0.4020 h1         1 GQG       0.069367
     24 HAA2         5.3620     3.1160     0.7770 h1         1 GQG       0.069367
     25 HAA3         6.0300     1.6720     1.5870 h1         1 GQG       0.069367
     26 HAB1         6.8140     0.7260    -1.9260 h1         1 GQG       0.069367
     27 HAB2         5.3200     1.4710    -2.5590 h1         1 GQG       0.069367
     28 HAB3         6.5860     2.4900    -1.8510 h1         1 GQG       0.069367
     29 HAM          3.6390     1.4920     1.5350 ha         1 GQG       0.230000
     30 HAL          4.8400    -0.7840    -1.8990 ha         1 GQG       0.230000
     31 HAP          1.7580    -0.1060     1.9390 h4         1 GQG       0.238500
     32 HAO          2.9560    -2.3750    -1.5110 h4         1 GQG       0.238500
     33 HAS1         1.1950    -3.0820    -0.2370 h1         1 GQG       0.087700
     34 HAS2         1.2790    -2.6930     1.4800 h1         1 GQG       0.087700
     35 HAG          0.2440    -0.3960    -1.3640 ha         1 GQG       0.110000
     36 HAF         -1.0350    -2.6510     2.1000 ha         1 GQG       0.110000
     37 HAK         -1.9820     0.6420    -1.5110 ha         1 GQG       0.133000
     38 HAJ         -3.2570    -1.5990     1.9640 ha         1 GQG       0.133000
     39 HAI         -5.2630    -1.5150     0.7760 ha         1 GQG       0.112500
     40 HAH         -3.4380     2.1890    -0.5430 ha         1 GQG       0.112500
     41 HAE         -7.4920    -0.4540     0.6390 ha         1 GQG       0.123000
     42 HAW         -7.7130     1.9170    -0.0990 ha         1 GQG       0.125000
     43 HAD         -5.6770     3.2270    -0.6930 ha         1 GQG       0.123000
@<TRIPOS>BOND
     1     1     2 1   
     2     1    23 1   
     3     1    24 1   
     4     1    25 1   
     5     2     3 1   
     6     2     4 2   
     7     3    26 1   
     8     3    27 1   
     9     3    28 1   
    10     4     5 1   
    11     4     7 1   
    12     5     6 2   
    13     5    29 1   
    14     6     9 1   
    15     6    31 1   
    16     7     8 2   
    17     7    30 1   
    18     8     9 1   
    19     8    32 1   
    20     9    10 1   
    21    10    11 1   
    22    10    33 1   
    23    10    34 1   
    24    11    12 ar  
    25    11    14 ar  
    26    12    13 ar  
    27    12    35 1   
    28    13    16 ar  
    29    13    37 1   
    30    14    15 ar  
    31    14    36 1   
    32    15    16 ar  
    33    15    38 1   
    34    16    17 1   
    35    17    18 ar  
    36    17    20 ar  
    37    18    19 ar  
    38    18    39 1   
    39    19    22 ar  
    40    19    41 1   
    41    20    21 ar  
    42    20    40 1   
    43    21    22 ar  
    44    21    43 1   
    45    22    42 1   
@<TRIPOS>SUBSTRUCTURE
     1 GQG         1 TEMP              0 ****  ****    0 ROOT
