@<TRIPOS>MOLECULE
GQH
   86    87     1     0     0
SMALL
abcg2


@<TRIPOS>ATOM
      1 C6           5.0850     0.0670    -0.1260 c3         1 GQH       0.092500
      2 C7           3.7830     0.6580    -0.6430 c          1 GQH       0.616100
      3 C10          0.8510     0.1830    -0.2670 c          1 GQH       0.589100
      4 C13         -2.6140     1.1230     0.2030 c          1 GQH       0.594100
      5 C15         -4.9740     0.6930     0.7890 c3         1 GQH       0.112700
      6 C17         -4.4800    -1.6350    -0.0190 ca         1 GQH      -0.082300
      7 C20         -2.6910    -3.0920    -1.6340 ca         1 GQH      -0.088300
      8 C21         -1.7400    -3.8860    -2.4870 c3         1 GQH       0.194100
      9 C24         -4.6380    -1.6770    -1.3990 ca         1 GQH      -0.106000
     10 C28         -6.0340     5.6220     2.5270 c3         1 GQH      -0.334100
     11 C18         -3.4190    -2.3420     0.5430 ca         1 GQH      -0.106000
     12 C19         -2.5410    -3.0630    -0.2500 ca         1 GQH      -0.091000
     13 N22         -1.8910    -5.3140    -2.2400 n8         1 GQH      -0.992200
     14 C23         -3.7560    -2.3970    -2.1950 ca         1 GQH      -0.091000
     15 C16         -5.3790    -0.7890     0.8360 c3         1 GQH      -0.052100
     16 C25         -5.8350     1.5180     1.7430 c3         1 GQH      -0.062400
     17 S27         -6.5220     3.9330     2.7930 s6         1 GQH       1.078000
     18 O29         -7.9300     3.7880     2.4210 o          1 GQH      -0.518500
     19 O30         -6.1340     3.5430     4.1500 o          1 GQH      -0.518500
     20 N14         -3.5690     0.8390     1.1050 ns         1 GQH      -0.494900
     21 O31         -2.8330     1.4680    -0.9460 o          1 GQH      -0.606100
     22 C12         -1.1960     1.0400     0.7590 c3         1 GQH       0.031700
     23 C32         -0.8850     2.2710     1.6140 c3         1 GQH      -0.106100
     24 N11         -0.2770     0.9020    -0.3420 ns         1 GQH      -0.489900
     25 O39          1.2300    -0.3820     0.7450 o          1 GQH      -0.610100
     26 C9           1.6260     0.0830    -1.5860 c3         1 GQH       0.036700
     27 C40          1.0150    -1.0060    -2.4700 c3         1 GQH      -0.087400
     28 C41          1.7320    -1.2280    -3.8050 c3         1 GQH      -0.056700
     29 C42          1.0220    -2.3270    -4.5870 c3         1 GQH      -0.091600
     30 C43          1.8220     0.0480    -4.6350 c3         1 GQH      -0.091600
     31 N8           3.0090    -0.2100    -1.3140 ns         1 GQH      -0.490900
     32 O44          3.4560     1.8080    -0.4130 o          1 GQH      -0.561100
     33 N51          6.0740     1.1410    -0.1030 n2         1 GQH      -0.404200
     34 N52          7.2370     0.8020    -0.2240 n1         1 GQH       0.232000
     35 N53          8.3370     0.6050    -0.3400 n1         1 GQH      -0.070000
     36 C54          4.8360    -0.4950     1.2860 c3         1 GQH      -0.043100
     37 C55          6.0960    -1.0590     1.8770 ca         1 GQH      -0.100300
     38 C60          6.8510    -0.3190     2.7810 ca         1 GQH      -0.107500
     39 C59          8.0510    -0.8140     3.2750 ca         1 GQH      -0.107500
     40 C58          8.5100    -2.0590     2.8710 ca         1 GQH      -0.104000
     41 C57          7.7600    -2.8090     1.9730 ca         1 GQH      -0.107500
     42 C56          6.5620    -2.3110     1.4810 ca         1 GQH      -0.107500
     43 H1           5.4140    -0.7480    -0.7820 h1         1 GQH       0.047700
     44 H2          -5.1160     1.0610    -0.2280 h1         1 GQH       0.087700
     45 H3          -1.8770    -3.5990    -3.5380 h1         1 GQH       0.032200
     46 H4          -0.7150    -3.6100    -2.2280 h1         1 GQH       0.032200
     47 H5          -5.4570    -1.1390    -1.8630 ha         1 GQH       0.110500
     48 H6          -4.4820     3.2200     1.8690 h1         1 GQH       0.099700
     49 H7          -5.7470     3.3880     0.6350 h1         1 GQH       0.099700
     50 H8          -6.2500     5.9050     1.4990 h1         1 GQH       0.105033
     51 H9          -6.6140     6.2360     3.2140 h1         1 GQH       0.105033
     52 H10         -4.9730     5.7300     2.7370 h1         1 GQH       0.105033
     53 H11         -3.2770    -2.3270     1.6180 ha         1 GQH       0.110500
     54 H12         -1.7220    -3.6030     0.2120 ha         1 GQH       0.117500
     55 H13         -2.8040    -5.6130    -2.5570 hn         1 GQH       0.394500
     56 H14         -1.2220    -5.8210    -2.8060 hn         1 GQH       0.394500
     57 H16         -3.8990    -2.4140    -3.2690 ha         1 GQH       0.117500
     58 H17         -5.3480    -1.1350     1.8730 hc         1 GQH       0.056700
     59 H18         -6.4180    -0.8710     0.5080 hc         1 GQH       0.056700
     60 H19         -6.8840     1.3380     1.5020 hc         1 GQH       0.066700
     61 H20         -5.6750     1.1730     2.7670 hc         1 GQH       0.066700
     62 H21         -3.2740     0.4900     2.0050 hn         1 GQH       0.313500
     63 H22         -1.1140     0.1480     1.3840 h1         1 GQH       0.083700
     64 H23         -0.9470     3.1830     1.0190 hc         1 GQH       0.050700
     65 H24         -1.5790     2.3580     2.4500 hc         1 GQH       0.050700
     66 H25          0.1230     2.1950     2.0210 hc         1 GQH       0.050700
     67 H26         -0.5350     1.3430    -1.2120 hn         1 GQH       0.339500
     68 H27          1.5640     1.0440    -2.1050 h1         1 GQH       0.086700
     69 H28          0.9970    -1.9450    -1.9070 hc         1 GQH       0.056200
     70 H29         -0.0290    -0.7440    -2.6640 hc         1 GQH       0.056200
     71 H30          2.7520    -1.5720    -3.6010 hc         1 GQH       0.044700
     72 H31          0.0010    -2.0300    -4.8380 hc         1 GQH       0.036367
     73 H32          1.5430    -2.5430    -5.5210 hc         1 GQH       0.036367
     74 H33          0.9660    -3.2560    -4.0160 hc         1 GQH       0.036367
     75 H34          2.4080     0.8240    -4.1420 hc         1 GQH       0.036367
     76 H35          2.2990    -0.1540    -5.5960 hc         1 GQH       0.036367
     77 H36          0.8280     0.4540    -4.8390 hc         1 GQH       0.036367
     78 H37          3.3110    -1.1690    -1.3930 hn         1 GQH       0.316500
     79 H39          4.4420     0.3040     1.9170 hc         1 GQH       0.075700
     80 H40          4.0620    -1.2630     1.2160 hc         1 GQH       0.075700
     81 H41          6.5010     0.6560     3.0990 ha         1 GQH       0.114500
     82 H42          8.6270    -0.2240     3.9770 ha         1 GQH       0.114500
     83 H43          9.4440    -2.4460     3.2550 ha         1 GQH       0.114000
     84 H44          8.1060    -3.7850     1.6580 ha         1 GQH       0.114500
     85 H45          5.9840    -2.9020     0.7790 ha         1 GQH       0.114500
     86 C26         -5.5250     3.0030     1.6320 c3         1 GQH      -0.294400
@<TRIPOS>BOND
     1     1     2 1   
     2     1    33 1   
     3     1    36 1   
     4     1    43 1   
     5     2    31 1   
     6     2    32 2   
     7     3    24 1   
     8     3    25 2   
     9     3    26 1   
    10     4    20 1   
    11     4    21 2   
    12     4    22 1   
    13     5    15 1   
    14     5    16 1   
    15     5    20 1   
    16     5    44 1   
    17     6     9 ar  
    18     6    11 ar  
    19     6    15 1   
    20     7     8 1   
    21     7    12 ar  
    22     7    14 ar  
    23     8    13 1   
    24     8    45 1   
    25     8    46 1   
    26     9    14 ar  
    27     9    47 1   
    28    10    17 1   
    29    10    50 1   
    30    10    51 1   
    31    10    52 1   
    32    11    12 ar  
    33    11    53 1   
    34    12    54 1   
    35    13    55 1   
    36    13    56 1   
    37    14    57 1   
    38    15    58 1   
    39    15    59 1   
    40    16    60 1   
    41    16    61 1   
    42    16    86 1   
    43    17    18 2   
    44    17    19 2   
    45    17    86 1   
    46    20    62 1   
    47    22    23 1   
    48    22    24 1   
    49    22    63 1   
    50    23    64 1   
    51    23    65 1   
    52    23    66 1   
    53    24    67 1   
    54    26    27 1   
    55    26    31 1   
    56    26    68 1   
    57    27    28 1   
    58    27    69 1   
    59    27    70 1   
    60    28    29 1   
    61    28    30 1   
    62    28    71 1   
    63    29    72 1   
    64    29    73 1   
    65    29    74 1   
    66    30    75 1   
    67    30    76 1   
    68    30    77 1   
    69    31    78 1   
    70    33    34 1   
    71    34    35 3   
    72    36    37 1   
    73    36    79 1   
    74    36    80 1   
    75    37    38 ar  
    76    37    42 ar  
    77    38    39 ar  
    78    38    81 1   
    79    39    40 ar  
    80    39    82 1   
    81    40    41 ar  
    82    40    83 1   
    83    41    42 ar  
    84    41    84 1   
    85    42    85 1   
    86    48    86 1   
    87    49    86 1   
@<TRIPOS>SUBSTRUCTURE
     1 GQH         1 TEMP              0 ****  ****    0 ROOT
