@<TRIPOS>MOLECULE
GQH
   86    87     1     0     0
SMALL
No Charge or Current Charge


@<TRIPOS>ATOM
      1 C6           5.4280    -0.6990    -0.0870 c3         1 GQH       0.092500
      2 C7           4.1870     0.0300    -0.6770 c          1 GQH       0.616100
      3 C10          0.6500     0.0020     0.4270 c          1 GQH       0.589100
      4 C13         -2.9700     1.0530     0.3850 c          1 GQH       0.594100
      5 C15         -5.4620     0.7050     0.5220 c3         1 GQH       0.112700
      6 C17         -4.8060    -1.5120    -0.5840 ca         1 GQH      -0.082300
      7 C20         -2.8100    -2.8410    -2.0870 ca         1 GQH      -0.088300
      8 C21         -1.7320    -3.5520    -2.8940 c3         1 GQH       0.194100
      9 C24         -4.7360    -1.3430    -1.9800 ca         1 GQH      -0.106000
     10 C28         -6.7100     5.4500     2.8500 c3         1 GQH      -0.334100
     11 C18         -3.8730    -2.3520     0.0550 ca         1 GQH      -0.106000
     12 C19         -2.8800    -3.0090    -0.6910 ca         1 GQH      -0.091000
     13 N22         -2.0990    -4.9520    -3.1730 n8         1 GQH      -0.992200
     14 C23         -3.7450    -2.0040    -2.7270 ca         1 GQH      -0.091000
     15 C16         -5.8590    -0.7640     0.2310 c3         1 GQH      -0.052100
     16 C25         -6.4840     1.4300     1.4290 c3         1 GQH      -0.062400
     17 S27         -7.3460     3.7820     2.7100 s6         1 GQH       1.078000
     18 O29         -8.6100     3.8440     1.9660 o          1 GQH      -0.518500
     19 O30         -7.3230     3.1780     4.0480 o          1 GQH      -0.518500
     20 N14         -4.1140     0.7640     1.0990 ns         1 GQH      -0.494900
     21 O31         -3.0010     1.4500    -0.7740 o          1 GQH      -0.606100
     22 C12         -1.6430     0.8070     1.1550 c3         1 GQH       0.031700
     23 C32         -1.3660     1.9180     2.1910 c3         1 GQH      -0.106100
     24 N11         -0.5220     0.6910     0.1980 ns         1 GQH      -0.489900
     25 O39          0.8760    -0.5480     1.4980 o          1 GQH      -0.610100
     26 C9           1.6420    -0.0210    -0.7730 c3         1 GQH       0.036700
     27 C40          1.0900    -0.8920    -1.9400 c3         1 GQH      -0.087400
     28 C41          1.8910    -0.8300    -3.2710 c3         1 GQH      -0.056700
     29 C42          1.3900    -1.9010    -4.2670 c3         1 GQH      -0.091600
     30 C43          1.8520     0.5720    -3.9250 c3         1 GQH      -0.091600
     31 N8           2.9660    -0.5160    -0.3270 ns         1 GQH      -0.490900
     32 O44          4.2710     1.0260    -1.3860 o          1 GQH      -0.561100
     33 N51          6.1960    -1.3870    -1.1500 n2         1 GQH      -0.404200
     34 N52          6.6470    -2.5110    -0.8750 n1         1 GQH       0.232000
     35 N53          7.1660    -3.4720    -0.5560 n1         1 GQH      -0.070000
     36 C54          6.3400     0.2810     0.6970 c3         1 GQH      -0.043100
     37 C55          7.4520    -0.4230     1.4690 ca         1 GQH      -0.100300
     38 C60          8.7850    -0.3660     1.0130 ca         1 GQH      -0.107500
     39 C59          9.8040    -1.0280     1.7190 ca         1 GQH      -0.107500
     40 C58          9.4980    -1.7500     2.8850 ca         1 GQH      -0.104000
     41 C57          8.1720    -1.8100     3.3450 ca         1 GQH      -0.107500
     42 C56          7.1520    -1.1480     2.6390 ca         1 GQH      -0.107500
     43 H1           5.0430    -1.4340     0.6340 h1         1 GQH       0.047700
     44 H2          -5.4510     1.2360    -0.4400 h1         1 GQH       0.087700
     45 H3          -1.5780    -3.0320    -3.8500 h1         1 GQH       0.032200
     46 H4          -0.7830    -3.5380    -2.3410 h1         1 GQH       0.032200
     47 H5          -5.4440    -0.6910    -2.4860 ha         1 GQH       0.110500
     48 H6          -5.1720     3.0130     2.2060 h1         1 GQH       0.099700
     49 H7          -6.0820     3.4730     0.7380 h1         1 GQH       0.099700
     50 H8          -6.6410     5.8670     1.8400 h1         1 GQH       0.105033
     51 H9          -7.4120     6.0200     3.4670 h1         1 GQH       0.105033
     52 H10         -5.7240     5.3920     3.3240 h1         1 GQH       0.105033
     53 H11         -3.9100    -2.4880     1.1340 ha         1 GQH       0.110500
     54 H12         -2.1640    -3.6530    -0.1850 ha         1 GQH       0.117500
     55 H13         -2.9580    -4.9590    -3.7350 hn         1 GQH       0.394500
     56 H14         -1.3950    -5.3630    -3.7960 hn         1 GQH       0.394500
     57 H16         -3.7020    -1.8610    -3.8040 ha         1 GQH       0.117500
     58 H17         -6.0320    -1.2830     1.1820 hc         1 GQH       0.056700
     59 H18         -6.8190    -0.7760    -0.2990 hc         1 GQH       0.056700
     60 H19         -7.4750     1.3670     0.9610 hc         1 GQH       0.066700
     61 H20         -6.5530     0.9000     2.3890 hc         1 GQH       0.066700
     62 H21         -3.9900     0.4490     2.0530 hn         1 GQH       0.313500
     63 H22         -1.7530    -0.1510     1.6800 h1         1 GQH       0.083700
     64 H23         -1.2610     2.8920     1.6980 hc         1 GQH       0.050700
     65 H24         -2.1860     1.9880     2.9160 hc         1 GQH       0.050700
     66 H25         -0.4420     1.7110     2.7450 hc         1 GQH       0.050700
     67 H26         -0.6440     1.1020    -0.7220 hn         1 GQH       0.339500
     68 H27          1.7360     1.0210    -1.1050 h1         1 GQH       0.086700
     69 H28          1.0480    -1.9330    -1.5950 hc         1 GQH       0.056200
     70 H29          0.0530    -0.6030    -2.1510 hc         1 GQH       0.056200
     71 H30          2.9390    -1.0680    -3.0530 hc         1 GQH       0.044700
     72 H31          0.3480    -1.7130    -4.5520 hc         1 GQH       0.036367
     73 H32          2.0000    -1.8980    -5.1780 hc         1 GQH       0.036367
     74 H33          1.4520    -2.9030    -3.8250 hc         1 GQH       0.036367
     75 H34          2.2950     1.3320    -3.2720 hc         1 GQH       0.036367
     76 H35          2.4190     0.5750    -4.8640 hc         1 GQH       0.036367
     77 H36          0.8210     0.8710    -4.1480 hc         1 GQH       0.036367
     78 H37          2.9860    -1.3150     0.2970 hn         1 GQH       0.316500
     79 H39          6.7600     1.0190     0.0000 hc         1 GQH       0.075700
     80 H40          5.7200     0.8530     1.3990 hc         1 GQH       0.075700
     81 H41          9.0310     0.1850     0.1080 ha         1 GQH       0.114500
     82 H42         10.8310    -0.9830     1.3620 ha         1 GQH       0.114500
     83 H43         10.2870    -2.2630     3.4310 ha         1 GQH       0.114000
     84 H44          7.9340    -2.3690     4.2470 ha         1 GQH       0.114500
     85 H45          6.1280    -1.2010     3.0020 ha         1 GQH       0.114500
     86 C26         -6.1310     2.9210     1.6840 c3         1 GQH      -0.294400
@<TRIPOS>BOND
     1     1     2 1   
     2     1    33 1   
     3     1    36 1   
     4     1    43 1   
     5     2    31 1   
     6     2    32 2   
     7     3    24 1   
     8     3    25 2   
     9     3    26 1   
    10     4    20 1   
    11     4    21 2   
    12     4    22 1   
    13     5    15 1   
    14     5    16 1   
    15     5    20 1   
    16     5    44 1   
    17     6     9 ar  
    18     6    11 ar  
    19     6    15 1   
    20     7     8 1   
    21     7    12 ar  
    22     7    14 ar  
    23     8    13 1   
    24     8    45 1   
    25     8    46 1   
    26     9    14 ar  
    27     9    47 1   
    28    10    17 1   
    29    10    50 1   
    30    10    51 1   
    31    10    52 1   
    32    11    12 ar  
    33    11    53 1   
    34    12    54 1   
    35    13    55 1   
    36    13    56 1   
    37    14    57 1   
    38    15    58 1   
    39    15    59 1   
    40    16    60 1   
    41    16    61 1   
    42    16    86 1   
    43    17    18 2   
    44    17    19 2   
    45    17    86 1   
    46    20    62 1   
    47    22    23 1   
    48    22    24 1   
    49    22    63 1   
    50    23    64 1   
    51    23    65 1   
    52    23    66 1   
    53    24    67 1   
    54    26    27 1   
    55    26    31 1   
    56    26    68 1   
    57    27    28 1   
    58    27    69 1   
    59    27    70 1   
    60    28    29 1   
    61    28    30 1   
    62    28    71 1   
    63    29    72 1   
    64    29    73 1   
    65    29    74 1   
    66    30    75 1   
    67    30    76 1   
    68    30    77 1   
    69    31    78 1   
    70    33    34 1   
    71    34    35 3   
    72    36    37 1   
    73    36    79 1   
    74    36    80 1   
    75    37    38 ar  
    76    37    42 ar  
    77    38    39 ar  
    78    38    81 1   
    79    39    40 ar  
    80    39    82 1   
    81    40    41 ar  
    82    40    83 1   
    83    41    42 ar  
    84    41    84 1   
    85    42    85 1   
    86    48    86 1   
    87    49    86 1   
@<TRIPOS>SUBSTRUCTURE
     1 GQH         1 TEMP              0 ****  ****    0 ROOT
