@<TRIPOS>MOLECULE
GQJ
   30    31     1     0     0
SMALL
abcg2


@<TRIPOS>ATOM
      1 C10          0.6920     0.5600    -0.4290 c          1 GQJ       0.550600
      2 C13          4.2760     1.2050     0.0080 cc         1 GQJ      -0.199000
      3 C01         -4.0690     2.0710     0.2200 c3         1 GQJ       0.152900
      4 C03         -2.1500     0.7160     0.3610 c          1 GQJ       0.593100
      5 C04         -1.4600    -0.4770    -0.2640 c5         1 GQJ       0.054700
      6 C05         -1.9480    -1.7860     0.3730 c5         1 GQJ      -0.080400
      7 C06         -0.7390    -2.6960     0.2500 c5         1 GQJ       0.149300
      8 C08          0.4100    -1.7500     0.5830 c5         1 GQJ       0.081000
      9 C11          2.1250     0.6470    -0.1190 cd         1 GQJ       0.062500
     10 C12          3.0560     1.4760    -0.6660 cc         1 GQJ      -0.105000
     11 C14          3.9910     0.2410     0.9190 cd         1 GQJ       0.139900
     12 N09         -0.0380    -0.4770     0.0210 n          1 GQJ      -0.391800
     13 O02         -3.2510     1.0220    -0.3030 os         1 GQJ      -0.437100
     14 O07         -0.6830    -3.1560    -1.0800 oh         1 GQJ      -0.651000
     15 O15          2.6960    -0.1030     0.8490 os         1 GQJ      -0.233000
     16 O16          0.1810     1.4580    -1.0910 o          1 GQJ      -0.591100
     17 O17         -1.7840     1.2680     1.3650 o          1 GQJ      -0.474000
     18 H1           5.2350     1.6670    -0.1580 ha         1 GQJ       0.146000
     19 H2          -4.4410     1.8250     1.2140 h1         1 GQJ       0.049033
     20 H3          -3.5240     3.0140     0.2620 h1         1 GQJ       0.049033
     21 H4          -4.9050     2.1680    -0.4650 h1         1 GQJ       0.049033
     22 H5          -1.6440    -0.4830    -1.3420 h1         1 GQJ       0.102700
     23 H6          -2.1750    -1.6410     1.4310 hc         1 GQJ       0.073700
     24 H7          -2.8370    -2.1800    -0.1160 hc         1 GQJ       0.073700
     25 H8          -0.7750    -3.5260     0.9640 h1         1 GQJ       0.052700
     26 H9           0.5420    -1.6840     1.6650 h1         1 GQJ       0.062200
     27 H10          1.3480    -2.0840     0.1410 h1         1 GQJ       0.062200
     28 H11          2.8920     2.1910    -1.4550 ha         1 GQJ       0.159000
     29 H12          4.5870    -0.2720     1.6560 h4         1 GQJ       0.053100
     30 H13          0.1050    -3.6980    -1.1860 ho         1 GQJ       0.446000
@<TRIPOS>BOND
     1     1     9 1   
     2     1    12 1   
     3     1    16 2   
     4     2    10 1   
     5     2    11 2   
     6     2    18 1   
     7     3    13 1   
     8     3    19 1   
     9     3    20 1   
    10     3    21 1   
    11     4     5 1   
    12     4    13 1   
    13     4    17 2   
    14     5     6 1   
    15     5    12 1   
    16     5    22 1   
    17     6     7 1   
    18     6    23 1   
    19     6    24 1   
    20     7     8 1   
    21     7    14 1   
    22     7    25 1   
    23     8    12 1   
    24     8    26 1   
    25     8    27 1   
    26     9    10 2   
    27     9    15 1   
    28    10    28 1   
    29    11    15 1   
    30    11    29 1   
    31    14    30 1   
@<TRIPOS>SUBSTRUCTURE
     1 GQJ         1 TEMP              0 ****  ****    0 ROOT
