@<TRIPOS>MOLECULE
GQJ
   30    31     1     0     0
SMALL
No Charge or Current Charge


@<TRIPOS>ATOM
      1 C10          0.8220     0.6370    -0.4480 c          1 GQJ       0.550600
      2 C13          4.4200     1.2120     0.1230 cc         1 GQJ      -0.199000
      3 C01         -4.3410     1.9880     0.1220 c3         1 GQJ       0.152900
      4 C03         -2.2510     0.7970     0.3240 c          1 GQJ       0.593100
      5 C04         -1.4850    -0.4290    -0.2560 c5         1 GQJ       0.054700
      6 C05         -1.9360    -1.7050     0.5170 c5         1 GQJ      -0.080400
      7 C06         -0.7670    -2.6860     0.2620 c5         1 GQJ       0.149300
      8 C08          0.4700    -1.7550     0.4650 c5         1 GQJ       0.081000
      9 C11          2.2820     0.6180    -0.0750 cd         1 GQJ       0.062500
     10 C12          3.1860     1.5830    -0.4430 cc         1 GQJ      -0.105000
     11 C14          4.1990     0.0500     0.8080 cd         1 GQJ       0.139900
     12 N09         -0.0070    -0.4450    -0.0470 n          1 GQJ      -0.391800
     13 O02         -3.4780     0.9090    -0.2830 os         1 GQJ      -0.437100
     14 O07         -0.8300    -3.2340    -1.0610 oh         1 GQJ      -0.651000
     15 O15          2.8840    -0.3450     0.7150 os         1 GQJ      -0.233000
     16 O16          0.3400     1.5660    -1.0890 o          1 GQJ      -0.591100
     17 O17         -1.8510     1.5630     1.1950 o          1 GQJ      -0.474000
     18 H1           5.3570     1.7530     0.0300 ha         1 GQJ       0.146000
     19 H2          -4.5820     1.9170     1.1900 h1         1 GQJ       0.049033
     20 H3          -3.8660     2.9600    -0.0640 h1         1 GQJ       0.049033
     21 H4          -5.2820     1.9560    -0.4420 h1         1 GQJ       0.049033
     22 H5          -1.7210    -0.5060    -1.3250 h1         1 GQJ       0.102700
     23 H6          -2.0380    -1.5050     1.5900 hc         1 GQJ       0.073700
     24 H7          -2.9000    -2.0900     0.1670 hc         1 GQJ       0.073700
     25 H8          -0.7690    -3.5010     0.9990 h1         1 GQJ       0.052700
     26 H9           0.7360    -1.6810     1.5280 h1         1 GQJ       0.062200
     27 H10          1.3410    -2.1290    -0.0890 h1         1 GQJ       0.062200
     28 H11          2.9980     2.4630    -1.0510 ha         1 GQJ       0.159000
     29 H12          4.8710    -0.5710     1.3870 h4         1 GQJ       0.053100
     30 H13         -0.0900    -3.8760    -1.1430 ho         1 GQJ       0.446000
@<TRIPOS>BOND
     1     1     9 1   
     2     1    12 1   
     3     1    16 2   
     4     2    10 1   
     5     2    11 2   
     6     2    18 1   
     7     3    13 1   
     8     3    19 1   
     9     3    20 1   
    10     3    21 1   
    11     4     5 1   
    12     4    13 1   
    13     4    17 2   
    14     5     6 1   
    15     5    12 1   
    16     5    22 1   
    17     6     7 1   
    18     6    23 1   
    19     6    24 1   
    20     7     8 1   
    21     7    14 1   
    22     7    25 1   
    23     8    12 1   
    24     8    26 1   
    25     8    27 1   
    26     9    10 2   
    27     9    15 1   
    28    10    28 1   
    29    11    15 1   
    30    11    29 1   
    31    14    30 1   
@<TRIPOS>SUBSTRUCTURE
     1 GQJ         1 TEMP              0 ****  ****    0 ROOT
