@<TRIPOS>MOLECULE
GQK
   86    88     1     0     0
SMALL
bcc


@<TRIPOS>ATOM
      1 C4          -2.3790     0.0300    -3.2520 ca         1 GQK      -0.124000
      2 C5          -3.3430    -0.4080    -2.3540 ca         1 GQK      -0.122000
      3 C6          -4.4070     0.4140    -1.9900 ca         1 GQK      -0.084300
      4 C7          -5.4180    -0.0240    -0.9670 c3         1 GQK      -0.044100
      5 C8          -5.0240     0.4360     0.4460 c3         1 GQK       0.071700
      6 C24         -1.2610     0.0480     0.8600 c3         1 GQK       0.026700
      7 C36          7.4630    -0.4970    -2.4390 c6         1 GQK       0.127800
      8 C35          8.8060     0.0000    -1.9380 c6         1 GQK       0.130400
      9 O34          8.9350    -0.1760    -0.5440 os         1 GQK      -0.405600
     10 C33          7.8970     0.4850     0.1440 c6         1 GQK       0.130400
     11 C32          6.5310     0.0080    -0.3110 c6         1 GQK       0.127800
     12 N31          6.3920     0.1930    -1.7430 n3         1 GQK      -0.695600
     13 C30          5.0950    -0.1980    -2.2230 c3         1 GQK       0.089800
     14 O37          4.2380     1.9750    -1.6300 o          1 GQK      -0.586100
     15 N28          2.7940     0.2420    -1.6870 ns         1 GQK      -0.573900
     16 C27          1.6050     1.0120    -1.4160 c3         1 GQK       0.038700
     17 C38          1.0060     1.6180    -2.6860 c3         1 GQK      -0.110100
     18 O39          0.5490    -1.1020    -1.0030 o          1 GQK      -0.611100
     19 N25         -0.2560     0.7180     0.0810 ns         1 GQK      -0.548900
     20 C40         -0.8650     0.0040     2.3500 c3         1 GQK      -0.037100
     21 C41          0.4440    -0.7020     2.5500 ca         1 GQK      -0.124300
     22 C48          0.4930    -2.0850     2.7180 ca         1 GQK      -0.082000
     23 C47          1.6950    -2.7520     2.8560 ca         1 GQK      -0.185000
     24 C44          2.8980    -2.0450     2.8230 ca         1 GQK       0.144100
     25 O45          4.0240    -2.7730     2.9740 os         1 GQK      -0.317900
     26 C46          5.2650    -2.1030     2.9730 c3         1 GQK       0.124700
     27 C43          2.8700    -0.6650     2.6480 ca         1 GQK      -0.185000
     28 C42          1.6480    -0.0130     2.5190 ca         1 GQK      -0.082000
     29 N22         -3.6740    -0.0170     0.7350 ns         1 GQK      -0.577900
     30 C3          -2.4730     1.2960    -3.8130 ca         1 GQK      -0.132000
     31 C2          -3.5350     2.1210    -3.4660 ca         1 GQK      -0.124000
     32 C1          -4.4890     1.6820    -2.5590 ca         1 GQK      -0.122000
     33 C9          -5.9410    -0.0610     1.5840 c3         1 GQK       0.156100
     34 O21         -5.3960     0.3360     2.8190 oh         1 GQK      -0.593800
     35 H1          -1.5530    -0.6210    -3.5110 ha         1 GQK       0.133000
     36 H2          -3.2650    -1.4050    -1.9370 ha         1 GQK       0.126500
     37 H3          -6.3970     0.3800    -1.2160 hc         1 GQK       0.064200
     38 H4          -5.5170    -1.1140    -0.9770 hc         1 GQK       0.064200
     39 H5          -4.9920     1.5270     0.4710 h1         1 GQK       0.095700
     40 H6          -1.3480    -0.9730     0.4860 h1         1 GQK       0.090700
     41 H8           7.4030    -1.5910    -2.3090 h1         1 GQK       0.040950
     42 H9           9.6140    -0.5560    -2.4150 h1         1 GQK       0.053450
     43 H10          8.9220     1.0610    -2.2030 h1         1 GQK       0.053450
     44 H11          8.0280     0.2830     1.2080 h1         1 GQK       0.053450
     45 H12          7.9670     1.5720    -0.0040 h1         1 GQK       0.053450
     46 H13          6.3960    -1.0520    -0.0290 h1         1 GQK       0.040950
     47 H14          5.7690     0.5840     0.2190 h1         1 GQK       0.040950
     48 H16          5.1090    -0.1980    -3.3180 h1         1 GQK       0.049200
     49 H17          4.8170    -1.2210    -1.9200 h1         1 GQK       0.049200
     50 H18          2.6730    -0.7480    -1.8460 hn         1 GQK       0.335500
     51 H19          1.8690     1.8190    -0.7280 h1         1 GQK       0.080700
     52 H20          0.1180     2.2070    -2.4600 hc         1 GQK       0.052033
     53 H21          1.7330     2.2710    -3.1670 hc         1 GQK       0.052033
     54 H22          0.7260     0.8360    -3.3910 hc         1 GQK       0.052033
     55 H23         -0.1290     1.7040     0.2500 hn         1 GQK       0.334500
     56 H24         -0.8090     1.0270     2.7290 hc         1 GQK       0.058200
     57 H25         -1.6580    -0.5010     2.9080 hc         1 GQK       0.058200
     58 H26         -0.4280    -2.6570     2.7490 ha         1 GQK       0.127500
     59 H27          1.7110    -3.8260     2.9940 ha         1 GQK       0.141000
     60 H28          5.4620    -1.6070     2.0170 h1         1 GQK       0.040700
     61 H29          5.3340    -1.3600     3.7720 h1         1 GQK       0.040700
     62 H30          6.0290    -2.8600     3.1320 h1         1 GQK       0.040700
     63 H31          3.7780    -0.0780     2.6140 ha         1 GQK       0.141000
     64 H32          1.6490     1.0640     2.3980 ha         1 GQK       0.127500
     65 H33         -3.5160    -1.0140     0.6890 hn         1 GQK       0.307500
     66 H34         -1.7230     1.6380    -4.5150 ha         1 GQK       0.129000
     67 H35         -3.6200     3.1090    -3.9010 ha         1 GQK       0.133000
     68 H36         -5.3100     2.3370    -2.2890 ha         1 GQK       0.126500
     69 H37         -5.9930    -1.1610     1.5190 h1         1 GQK       0.040700
     70 H38         -4.4760     0.0500     2.8380 ho         1 GQK       0.414000
     71 C10         -7.3930     0.4570     1.5550 c3         1 GQK       0.169800
     72 C23         -2.5890     0.7820     0.7080 c          1 GQK       0.659100
     73 C11         -8.1130     0.0570     2.8450 c3         1 GQK      -0.116100
     74 C12         -7.4570     1.9720     1.3740 c3         1 GQK      -0.116100
     75 O13         -8.0090    -0.2060     0.4620 oh         1 GQK      -0.609800
     76 C26          0.5890     0.0910    -0.7500 c          1 GQK       0.667100
     77 O49         -2.6310     1.9970     0.6370 o          1 GQK      -0.586100
     78 C29          4.0130     0.7870    -1.8050 c          1 GQK       0.664100
     79 H7           7.3860    -0.2960    -3.5110 h1         1 GQK       0.040950
     80 H39         -7.7320     0.5850     3.7170 hc         1 GQK       0.045700
     81 H40         -9.1760     0.2970     2.7570 hc         1 GQK       0.045700
     82 H41         -8.0280    -1.0160     3.0300 hc         1 GQK       0.045700
     83 H42         -7.0800     2.2830     0.3990 hc         1 GQK       0.045700
     84 H43         -8.4890     2.3200     1.4520 hc         1 GQK       0.045700
     85 H44         -6.8800     2.4870     2.1410 hc         1 GQK       0.045700
     86 H45         -8.9200     0.1020     0.4020 ho         1 GQK       0.410000
@<TRIPOS>BOND
     1     1     2 ar  
     2     1    30 ar  
     3     1    35 1   
     4     2     3 ar  
     5     2    36 1   
     6     3     4 1   
     7     3    32 ar  
     8     4     5 1   
     9     4    37 1   
    10     4    38 1   
    11     5    29 1   
    12     5    33 1   
    13     5    39 1   
    14     6    19 1   
    15     6    20 1   
    16     6    40 1   
    17     6    72 1   
    18     7     8 1   
    19     7    12 1   
    20     7    41 1   
    21     7    79 1   
    22     8     9 1   
    23     8    42 1   
    24     8    43 1   
    25     9    10 1   
    26    10    11 1   
    27    10    44 1   
    28    10    45 1   
    29    11    12 1   
    30    11    46 1   
    31    11    47 1   
    32    12    13 1   
    33    13    48 1   
    34    13    49 1   
    35    13    78 1   
    36    14    78 2   
    37    15    16 1   
    38    15    50 1   
    39    15    78 1   
    40    16    17 1   
    41    16    51 1   
    42    16    76 1   
    43    17    52 1   
    44    17    53 1   
    45    17    54 1   
    46    18    76 2   
    47    19    55 1   
    48    19    76 1   
    49    20    21 1   
    50    20    56 1   
    51    20    57 1   
    52    21    22 ar  
    53    21    28 ar  
    54    22    23 ar  
    55    22    58 1   
    56    23    24 ar  
    57    23    59 1   
    58    24    25 1   
    59    24    27 ar  
    60    25    26 1   
    61    26    60 1   
    62    26    61 1   
    63    26    62 1   
    64    27    28 ar  
    65    27    63 1   
    66    28    64 1   
    67    29    65 1   
    68    29    72 1   
    69    30    31 ar  
    70    30    66 1   
    71    31    32 ar  
    72    31    67 1   
    73    32    68 1   
    74    33    34 1   
    75    33    69 1   
    76    33    71 1   
    77    34    70 1   
    78    71    73 1   
    79    71    74 1   
    80    71    75 1   
    81    72    77 2   
    82    73    80 1   
    83    73    81 1   
    84    73    82 1   
    85    74    83 1   
    86    74    84 1   
    87    74    85 1   
    88    75    86 1   
@<TRIPOS>SUBSTRUCTURE
     1 GQK         1 TEMP              0 ****  ****    0 ROOT
