@<TRIPOS>MOLECULE
GQK
   86    88     1     0     0
SMALL
No Charge or Current Charge


@<TRIPOS>ATOM
      1 C4          -2.5480    -1.1280    -3.0340 ca         1 GQK      -0.106000
      2 C5          -3.5590    -1.2210    -2.0620 ca         1 GQK      -0.104000
      3 C6          -4.3740    -0.1080    -1.7740 ca         1 GQK      -0.084300
      4 C7          -5.4380    -0.1890    -0.6790 c3         1 GQK      -0.044100
      5 C8          -4.9990     0.4850     0.6520 c3         1 GQK       0.071700
      6 C24         -1.1370     0.2110     0.6280 c3         1 GQK       0.026700
      7 C36          7.5810    -0.1580    -1.8380 c6         1 GQK       0.127800
      8 C35          8.6220    -0.0860    -0.6800 c6         1 GQK       0.153600
      9 O34          7.9960    -0.4250     0.5820 os         1 GQK      -0.452000
     10 C33          6.8850     0.4450     0.9030 c6         1 GQK       0.153600
     11 C32          5.8030     0.3720    -0.2160 c6         1 GQK       0.127800
     12 N31          6.3810     0.6910    -1.5600 n3         1 GQK      -0.695600
     13 C30          5.3770     0.6600    -2.6720 c3         1 GQK       0.089800
     14 O37          4.0820     2.7420    -2.6480 o          1 GQK      -0.586100
     15 N28          2.9630     0.8210    -2.1370 ns         1 GQK      -0.506900
     16 C27          1.6490     1.4170    -1.8160 c3         1 GQK       0.038700
     17 C38          0.9230     1.8810    -3.1000 c3         1 GQK      -0.110100
     18 O39          0.9530    -0.8150    -1.0950 o          1 GQK      -0.611100
     19 N25         -0.1890     0.9610    -0.2270 ns         1 GQK      -0.481900
     20 C40         -0.5860     0.0360     2.0670 c3         1 GQK      -0.037100
     21 C41          0.6720    -0.8240     2.1330 ca         1 GQK      -0.124300
     22 C48          0.5650    -2.2270     2.0970 ca         1 GQK      -0.064000
     23 C47          1.7180    -3.0270     2.1600 ca         1 GQK      -0.167000
     24 C44          2.9880    -2.4390     2.2560 ca         1 GQK       0.144100
     25 O45          4.0820    -3.2790     2.3210 os         1 GQK      -0.341100
     26 C46          5.4300    -2.7850     2.3930 c3         1 GQK       0.147900
     27 C43          3.1020    -1.0320     2.2910 ca         1 GQK      -0.167000
     28 C42          1.9460    -0.2310     2.2300 ca         1 GQK      -0.064000
     29 N22         -3.5910     0.1250     0.9340 ns         1 GQK      -0.510900
     30 C3          -2.3490     0.0770    -3.7280 ca         1 GQK      -0.114000
     31 C2          -3.1590     1.1900    -3.4480 ca         1 GQK      -0.106000
     32 C1          -4.1690     1.0970    -2.4730 ca         1 GQK      -0.104000
     33 C9          -5.9140     0.1860     1.8930 c3         1 GQK       0.179300
     34 O21         -5.2320     0.6880     3.0600 oh         1 GQK      -0.656000
     35 H1          -1.9180    -1.9890    -3.2480 ha         1 GQK       0.115000
     36 H2          -3.6990    -2.1560    -1.5240 ha         1 GQK       0.108500
     37 H3          -6.3550     0.2870    -1.0440 hc         1 GQK       0.064200
     38 H4          -5.6940    -1.2380    -0.4830 hc         1 GQK       0.064200
     39 H5          -5.0330     1.5680     0.4790 h1         1 GQK       0.095700
     40 H6          -1.3050    -0.7800     0.1860 h1         1 GQK       0.090700
     41 H8           7.2820    -1.2080    -1.9740 h1         1 GQK       0.040950
     42 H9           9.4460    -0.7860    -0.8730 h1         1 GQK       0.053450
     43 H10          9.0410     0.9280    -0.6160 h1         1 GQK       0.053450
     44 H11          6.4530     0.1390     1.8660 h1         1 GQK       0.053450
     45 H12          7.2490     1.4770     1.0050 h1         1 GQK       0.053450
     46 H13          5.3620    -0.6360    -0.2200 h1         1 GQK       0.040950
     47 H14          4.9970     1.0760     0.0360 h1         1 GQK       0.040950
     48 H16          5.8510     0.9920    -3.6050 h1         1 GQK       0.049200
     49 H17          5.0500    -0.3750    -2.8430 h1         1 GQK       0.049200
     50 H18          3.0660    -0.1820    -2.0250 hn         1 GQK       0.335500
     51 H19          1.8110     2.2840    -1.1630 h1         1 GQK       0.080700
     52 H20         -0.0550     2.3140    -2.8580 hc         1 GQK       0.052033
     53 H21          1.5070     2.6430    -3.6290 hc         1 GQK       0.052033
     54 H22          0.7640     1.0370    -3.7810 hc         1 GQK       0.052033
     55 H23         -0.2790     1.9710    -0.2600 hn         1 GQK       0.334500
     56 H24         -0.3960     1.0260     2.5010 hc         1 GQK       0.058200
     57 H25         -1.3640    -0.4190     2.6930 hc         1 GQK       0.058200
     58 H26         -0.4130    -2.6990     2.0210 ha         1 GQK       0.109500
     59 H27          1.6270    -4.1100     2.1330 ha         1 GQK       0.123000
     60 H28          5.6770    -2.2000     1.4990 h1         1 GQK       0.040700
     61 H29          5.5700    -2.1550     3.2810 h1         1 GQK       0.040700
     62 H30          6.1380    -3.6210     2.4560 h1         1 GQK       0.040700
     63 H31          4.0690    -0.5450     2.3690 ha         1 GQK       0.123000
     64 H32          2.0430     0.8530     2.2570 ha         1 GQK       0.109500
     65 H33         -3.3830    -0.8520     1.1120 hn         1 GQK       0.307500
     66 H34         -1.5680     0.1480    -4.4820 ha         1 GQK       0.111000
     67 H35         -3.0040     2.1240    -3.9820 ha         1 GQK       0.115000
     68 H36         -4.7840     1.9670    -2.2540 ha         1 GQK       0.108500
     69 H37         -5.9800    -0.9080     1.9790 h1         1 GQK       0.040700
     70 H38         -4.2770     0.6700     2.8320 ho         1 GQK       0.453000
     71 C10         -7.4010     0.7350     1.8490 c3         1 GQK       0.193000
     72 C23         -2.5100     0.9340     0.6380 c          1 GQK       0.592100
     73 C11         -8.1630     0.3660     3.1480 c3         1 GQK      -0.116100
     74 C12         -7.4650     2.2670     1.6190 c3         1 GQK      -0.116100
     75 O13         -8.1250     0.1170     0.7800 oh         1 GQK      -0.672000
     76 C26          0.7850     0.3960    -1.0230 c          1 GQK       0.600100
     77 O49         -2.6370     2.1250     0.3830 o          1 GQK      -0.586100
     78 C29          4.0940     1.5250    -2.5010 c          1 GQK       0.597100
     79 H7           8.0680     0.1620    -2.7700 h1         1 GQK       0.040950
     80 H39         -7.7230     0.8650     4.0190 hc         1 GQK       0.045700
     81 H40         -9.2160     0.6670     3.0900 hc         1 GQK       0.045700
     82 H41         -8.1280    -0.7160     3.3250 hc         1 GQK       0.045700
     83 H42         -7.0580     2.5420     0.6390 hc         1 GQK       0.045700
     84 H43         -8.5000     2.6270     1.6590 hc         1 GQK       0.045700
     85 H44         -6.8950     2.8020     2.3890 hc         1 GQK       0.045700
     86 H45         -9.0470     0.4490     0.8290 ho         1 GQK       0.449000
@<TRIPOS>BOND
     1     1     2 ar  
     2     1    30 ar  
     3     1    35 1   
     4     2     3 ar  
     5     2    36 1   
     6     3     4 1   
     7     3    32 ar  
     8     4     5 1   
     9     4    37 1   
    10     4    38 1   
    11     5    29 1   
    12     5    33 1   
    13     5    39 1   
    14     6    19 1   
    15     6    20 1   
    16     6    40 1   
    17     6    72 1   
    18     7     8 1   
    19     7    12 1   
    20     7    41 1   
    21     7    79 1   
    22     8     9 1   
    23     8    42 1   
    24     8    43 1   
    25     9    10 1   
    26    10    11 1   
    27    10    44 1   
    28    10    45 1   
    29    11    12 1   
    30    11    46 1   
    31    11    47 1   
    32    12    13 1   
    33    13    48 1   
    34    13    49 1   
    35    13    78 1   
    36    14    78 2   
    37    15    16 1   
    38    15    50 1   
    39    15    78 1   
    40    16    17 1   
    41    16    51 1   
    42    16    76 1   
    43    17    52 1   
    44    17    53 1   
    45    17    54 1   
    46    18    76 2   
    47    19    55 1   
    48    19    76 1   
    49    20    21 1   
    50    20    56 1   
    51    20    57 1   
    52    21    22 ar  
    53    21    28 ar  
    54    22    23 ar  
    55    22    58 1   
    56    23    24 ar  
    57    23    59 1   
    58    24    25 1   
    59    24    27 ar  
    60    25    26 1   
    61    26    60 1   
    62    26    61 1   
    63    26    62 1   
    64    27    28 ar  
    65    27    63 1   
    66    28    64 1   
    67    29    65 1   
    68    29    72 1   
    69    30    31 ar  
    70    30    66 1   
    71    31    32 ar  
    72    31    67 1   
    73    32    68 1   
    74    33    34 1   
    75    33    69 1   
    76    33    71 1   
    77    34    70 1   
    78    71    73 1   
    79    71    74 1   
    80    71    75 1   
    81    72    77 2   
    82    73    80 1   
    83    73    81 1   
    84    73    82 1   
    85    74    83 1   
    86    74    84 1   
    87    74    85 1   
    88    75    86 1   
@<TRIPOS>SUBSTRUCTURE
     1 GQK         1 TEMP              0 ****  ****    0 ROOT
