@<TRIPOS>MOLECULE
GQL
   41    44     1     0     0
SMALL
abcg2


@<TRIPOS>ATOM
      1 C1          -0.9300     1.7260     0.4380 ca         1 GQL      -0.097800
      2 C2          -2.2350     1.2630     0.2870 cp         1 GQL       0.015000
      3 C3          -2.5900    -0.1390    -0.0080 cp         1 GQL       0.032000
      4 C4          -3.2430     2.2270     0.3460 ca         1 GQL      -0.160000
      5 C5          -2.9250     3.5720     0.4810 ca         1 GQL       0.332900
      6 C7          -0.7280     3.1260     0.5200 ca         1 GQL       0.489000
      7 C9           1.2630     2.3320     0.5320 cc         1 GQL       0.467500
      8 C10          0.4060     1.1670     0.4740 cc         1 GQL      -0.277800
      9 C11          0.8500    -0.1090     0.6890 cf         1 GQL       0.274900
     10 C13          2.2640    -0.4950     0.5810 ca         1 GQL      -0.108800
     11 C14          2.8360    -1.3190     1.5550 ca         1 GQL      -0.136000
     12 C15          4.1640    -1.6810     1.4290 ca         1 GQL      -0.069000
     13 C19          6.3450    -0.3720    -1.9140 c3         1 GQL       0.146900
     14 C17          4.3510    -0.4510    -0.6320 ca         1 GQL       0.145100
     15 C20          3.0140    -0.0720    -0.5090 ca         1 GQL      -0.107000
     16 C16          4.9270    -1.2580     0.3470 ca         1 GQL      -0.176000
     17 O12         -0.0110    -1.0320     1.0550 oh         1 GQL      -0.495100
     18 N8           0.6180     3.4550     0.5740 nd         1 GQL      -0.607700
     19 N6          -1.6820     4.0370     0.5450 nb         1 GQL      -0.616000
     20 C27         -3.5380    -0.8020     0.7640 ca         1 GQL      -0.155500
     21 C25         -3.8650    -2.1030     0.4340 ca         1 GQL       0.194000
     22 F26         -4.7640    -2.7510     1.1840 f          1 GQL      -0.174000
     23 C24         -3.3020    -2.7700    -0.6360 ca         1 GQL      -0.202000
     24 C22         -2.3750    -2.0710    -1.3860 ca         1 GQL       0.194000
     25 F23         -1.8150    -2.6850    -2.4360 f          1 GQL      -0.174000
     26 C21         -2.0060    -0.7730    -1.1010 ca         1 GQL      -0.155500
     27 H4          -4.2800     1.9350     0.2420 ha         1 GQL       0.124000
     28 H5          -3.7200     4.3080     0.5140 h4         1 GQL       0.022100
     29 H9           2.3430     2.3040     0.6020 h4         1 GQL       0.041800
     30 H14          2.2690    -1.6450     2.4180 ha         1 GQL       0.124000
     31 H15          4.6250    -2.3010     2.1860 ha         1 GQL       0.121000
     32 H19          6.9870    -0.0100    -1.1070 h1         1 GQL       0.045700
     33 H19A         6.4610    -1.4550    -2.0000 h1         1 GQL       0.045700
     34 H19B         6.6600     0.0910    -2.8450 h1         1 GQL       0.045700
     35 H20          2.5600     0.5290    -1.2870 ha         1 GQL       0.146000
     36 H16          5.9610    -1.5690     0.2830 ha         1 GQL       0.125000
     37 HO12         0.3790    -1.9170     1.0460 ho         1 GQL       0.484000
     38 H27         -3.9980    -0.3230     1.6180 ha         1 GQL       0.142500
     39 H24         -3.5740    -3.7890    -0.8770 ha         1 GQL       0.149000
     40 H21         -1.2800    -0.2630    -1.7210 ha         1 GQL       0.142500
     41 O18          4.9930    -0.0000    -1.7200 os         1 GQL      -0.334100
@<TRIPOS>BOND
     1     1     2 ar  
     2     1     6 ar  
     3     1     8 1   
     4     2     3 1   
     5     2     4 ar  
     6     3    20 ar  
     7     3    26 ar  
     8     4     5 ar  
     9     4    27 1   
    10     5    19 ar  
    11     5    28 1   
    12     6    18 1   
    13     6    19 ar  
    14     7     8 1   
    15     7    18 2   
    16     7    29 1   
    17     8     9 2   
    18     9    10 1   
    19     9    17 1   
    20    10    11 ar  
    21    10    15 ar  
    22    11    12 ar  
    23    11    30 1   
    24    12    16 ar  
    25    12    31 1   
    26    13    32 1   
    27    13    33 1   
    28    13    34 1   
    29    13    41 1   
    30    14    15 ar  
    31    14    16 ar  
    32    14    41 1   
    33    15    35 1   
    34    16    36 1   
    35    17    37 1   
    36    20    21 ar  
    37    20    38 1   
    38    21    22 1   
    39    21    23 ar  
    40    23    24 ar  
    41    23    39 1   
    42    24    25 1   
    43    24    26 ar  
    44    26    40 1   
@<TRIPOS>SUBSTRUCTURE
     1 GQL         1 TEMP              0 ****  ****    0 ROOT
