@<TRIPOS>MOLECULE
GQL
   41    44     1     0     0
SMALL
No Charge or Current Charge


@<TRIPOS>ATOM
      1 C1          -0.9620     1.8900     0.3930 ca         1 GQL      -0.097800
      2 C2          -2.2610     1.3150     0.2950 cp         1 GQL       0.015000
      3 C3          -2.5460    -0.1260     0.0410 cp         1 GQL       0.032000
      4 C4          -3.3340     2.2350     0.3300 ca         1 GQL      -0.160000
      5 C5          -3.0850     3.6150     0.4010 ca         1 GQL       0.332900
      6 C7          -0.8080     3.2840     0.3940 ca         1 GQL       0.489000
      7 C9           1.1800     2.5370     0.3890 cc         1 GQL       0.467500
      8 C10          0.3880     1.3540     0.4230 cc         1 GQL      -0.277800
      9 C11          0.8500     0.1130     0.7750 cf         1 GQL       0.274900
     10 C13          2.2130    -0.4610     0.5910 ca         1 GQL      -0.108800
     11 C14          2.6680    -1.5640     1.3580 ca         1 GQL      -0.136000
     12 C15          3.9560    -2.0910     1.1640 ca         1 GQL      -0.069000
     13 C19          6.5000    -0.3240    -1.8320 c3         1 GQL       0.146900
     14 C17          4.3780    -0.4440    -0.5750 ca         1 GQL       0.145100
     15 C20          3.0900     0.0820    -0.3760 ca         1 GQL      -0.107000
     16 C16          4.8130    -1.5360     0.2020 ca         1 GQL      -0.176000
     17 O12         -0.0250    -0.7830     1.2460 oh         1 GQL      -0.495100
     18 N8           0.5250     3.6940     0.3680 nd         1 GQL      -0.607700
     19 N6          -1.8420     4.1400     0.4100 nb         1 GQL      -0.616000
     20 C27         -3.4700    -0.8390     0.8420 ca         1 GQL      -0.155500
     21 C25         -3.7540    -2.1880     0.5790 ca         1 GQL       0.194000
     22 F26         -4.6320    -2.8530     1.3610 f          1 GQL      -0.174000
     23 C24         -3.1360    -2.8490    -0.4900 ca         1 GQL      -0.202000
     24 C22         -2.2330    -2.1510    -1.3020 ca         1 GQL       0.194000
     25 F23         -1.6390    -2.7810    -2.3380 f          1 GQL      -0.174000
     26 C21         -1.9440    -0.8030    -1.0470 ca         1 GQL      -0.155500
     27 H4          -4.3600     1.8850     0.2610 ha         1 GQL       0.124000
     28 H5          -3.9110     4.3260     0.4140 h4         1 GQL       0.022100
     29 H9           2.2570     2.5860     0.4730 h4         1 GQL       0.041800
     30 H14          2.0510    -2.0050     2.1370 ha         1 GQL       0.124000
     31 H15          4.2940    -2.9300     1.7690 ha         1 GQL       0.121000
     32 H19          7.1420    -0.2390    -0.9460 h1         1 GQL       0.045700
     33 H19A         6.4870    -1.3710    -2.1600 h1         1 GQL       0.045700
     34 H19B         6.9470     0.2770    -2.6340 h1         1 GQL       0.045700
     35 H20          2.7710     0.8990    -1.0160 ha         1 GQL       0.146000
     36 H16          5.8030    -1.9640     0.0740 ha         1 GQL       0.125000
     37 HO12         0.4360    -1.6440     1.2420 ho         1 GQL       0.484000
     38 H27         -3.9600    -0.3430     1.6750 ha         1 GQL       0.142500
     39 H24         -3.3590    -3.8930    -0.6900 ha         1 GQL       0.149000
     40 H21         -1.2440    -0.2760    -1.6900 ha         1 GQL       0.142500
     41 O18          5.1680     0.1390    -1.5450 os         1 GQL      -0.334100
@<TRIPOS>BOND
     1     1     2 ar  
     2     1     6 ar  
     3     1     8 1   
     4     2     3 1   
     5     2     4 ar  
     6     3    20 ar  
     7     3    26 ar  
     8     4     5 ar  
     9     4    27 1   
    10     5    19 ar  
    11     5    28 1   
    12     6    18 1   
    13     6    19 ar  
    14     7     8 1   
    15     7    18 2   
    16     7    29 1   
    17     8     9 2   
    18     9    10 1   
    19     9    17 1   
    20    10    11 ar  
    21    10    15 ar  
    22    11    12 ar  
    23    11    30 1   
    24    12    16 ar  
    25    12    31 1   
    26    13    32 1   
    27    13    33 1   
    28    13    34 1   
    29    13    41 1   
    30    14    15 ar  
    31    14    16 ar  
    32    14    41 1   
    33    15    35 1   
    34    16    36 1   
    35    17    37 1   
    36    20    21 ar  
    37    20    38 1   
    38    21    22 1   
    39    21    23 ar  
    40    23    24 ar  
    41    23    39 1   
    42    24    25 1   
    43    24    26 ar  
    44    26    40 1   
@<TRIPOS>SUBSTRUCTURE
     1 GQL         1 TEMP              0 ****  ****    0 ROOT
