@<TRIPOS>MOLECULE
GQM
   24    25     1     0     0
SMALL
No Charge or Current Charge


@<TRIPOS>ATOM
      1 N1          -3.9130     0.3150     0.1310 na         1 GQM       0.009800
      2 C4           0.4440    -1.2440     0.0200 ca         1 GQM      -0.013000
      3 C5          -0.3560    -0.0780     0.0780 ca         1 GQM      -0.266500
      4 C6           0.3080     1.1720     0.1240 ca         1 GQM       0.221100
      5 C7           1.7060     1.2510     0.1130 ca         1 GQM      -0.209000
      6 C8          -1.8310    -0.1900     0.0880 cc         1 GQM       0.350500
      7 C10         -3.8880    -1.0800     0.0710 cd         1 GQM      -0.162000
      8 C1           4.7420    -0.9000    -0.0100 c3         1 GQM       0.149900
      9 C2           2.4840     0.0920     0.0560 ca         1 GQM       0.189100
     10 C3           1.8460    -1.1610     0.0090 ca         1 GQM      -0.249000
     11 C9          -2.5640    -1.3920     0.0440 cc         1 GQM      -0.221000
     12 N2          -2.6290     0.8660     0.1410 nd         1 GQM      -0.591800
     13 O1           3.8560     0.2320     0.0470 os         1 GQM      -0.339100
     14 O2          -0.3970     2.3300     0.1810 oh         1 GQM      -0.549100
     15 H1          -4.7490     0.9010     0.1650 hn         1 GQM       0.375000
     16 H2          -0.0040    -2.2320    -0.0180 ha         1 GQM       0.109000
     17 H3           2.1920     2.2220     0.1490 ha         1 GQM       0.142000
     18 H4          -4.7790    -1.7000     0.0540 h4         1 GQM       0.155000
     19 H5           4.5920    -1.5560     0.8570 h1         1 GQM       0.041033
     20 H6           4.5740    -1.4810    -0.9260 h1         1 GQM       0.041033
     21 H7           5.7870    -0.5660    -0.0060 h1         1 GQM       0.041033
     22 H8           2.4190    -2.0830    -0.0360 ha         1 GQM       0.118000
     23 H9          -2.1500    -2.3910    -0.0030 ha         1 GQM       0.148000
     24 H10         -1.3480     2.0400     0.1780 ho         1 GQM       0.511000
@<TRIPOS>BOND
     1     1     7 1   
     2     1    12 1   
     3     1    15 1   
     4     2     3 ar  
     5     2    10 ar  
     6     2    16 1   
     7     3     4 ar  
     8     3     6 1   
     9     4     5 ar  
    10     4    14 1   
    11     5     9 ar  
    12     5    17 1   
    13     6    11 1   
    14     6    12 2   
    15     7    11 2   
    16     7    18 1   
    17     8    13 1   
    18     8    19 1   
    19     8    20 1   
    20     8    21 1   
    21     9    10 ar  
    22     9    13 1   
    23    10    22 1   
    24    11    23 1   
    25    14    24 1   
@<TRIPOS>SUBSTRUCTURE
     1 GQM         1 TEMP              0 ****  ****    0 ROOT
