@<TRIPOS>MOLECULE
GQM
   24    25     1     0     0
SMALL
bcc


@<TRIPOS>ATOM
      1 N1          -3.8070     0.3430     0.1450 na         1 GQM       0.009400
      2 C4           0.4950    -1.2740     0.0140 ca         1 GQM      -0.031000
      3 C5          -0.3280    -0.1540     0.0690 ca         1 GQM      -0.266500
      4 C6           0.2950     1.1130     0.1140 ca         1 GQM       0.221100
      5 C7           1.6800     1.2100     0.1020 ca         1 GQM      -0.227000
      6 C8          -1.7830    -0.2900     0.0820 cc         1 GQM       0.415800
      7 C10         -3.8730    -0.9940     0.0760 cd         1 GQM      -0.129300
      8 C1           4.6670    -0.8410     0.0010 c3         1 GQM       0.126700
      9 C2           2.4750     0.0690     0.0490 ca         1 GQM       0.189100
     10 C3           1.8780    -1.1910     0.0030 ca         1 GQM      -0.267000
     11 C9          -2.5790    -1.4540     0.0330 cc         1 GQM      -0.304300
     12 N2          -2.5580     0.7870     0.1500 nd         1 GQM      -0.591800
     13 O1           3.8030     0.2780     0.0460 os         1 GQM      -0.315900
     14 O2          -0.4000     2.2570     0.1700 oh         1 GQM      -0.510100
     15 H1          -4.5740     0.9940     0.1930 hn         1 GQM       0.324700
     16 H2           0.0460    -2.2590    -0.0210 ha         1 GQM       0.127000
     17 H3           2.1440     2.1890     0.1380 ha         1 GQM       0.160000
     18 H4          -4.8160    -1.5150     0.0610 h4         1 GQM       0.173000
     19 H5           4.5290    -1.4980     0.8630 h1         1 GQM       0.041033
     20 H6           4.5320    -1.4260    -0.9120 h1         1 GQM       0.041033
     21 H7           5.6800    -0.4480     0.0190 h1         1 GQM       0.041033
     22 H8           2.4620    -2.0990    -0.0400 ha         1 GQM       0.136000
     23 H9          -2.2650    -2.4820    -0.0250 ha         1 GQM       0.166000
     24 H10         -1.3620     2.0540     0.1770 ho         1 GQM       0.472000
@<TRIPOS>BOND
     1     1     7 1   
     2     1    12 1   
     3     1    15 1   
     4     2     3 ar  
     5     2    10 ar  
     6     2    16 1   
     7     3     4 ar  
     8     3     6 1   
     9     4     5 ar  
    10     4    14 1   
    11     5     9 ar  
    12     5    17 1   
    13     6    11 1   
    14     6    12 2   
    15     7    11 2   
    16     7    18 1   
    17     8    13 1   
    18     8    19 1   
    19     8    20 1   
    20     8    21 1   
    21     9    10 ar  
    22     9    13 1   
    23    10    22 1   
    24    11    23 1   
    25    14    24 1   
@<TRIPOS>SUBSTRUCTURE
     1 GQM         1 TEMP              0 ****  ****    0 ROOT
