@<TRIPOS>MOLECULE
GQN
   45    47     1     0     0
SMALL
abcg2


@<TRIPOS>ATOM
      1 C17         -1.8790     0.4530    -0.7810 ca         1 GQN      -0.069500
      2 C16         -1.2610    -0.4080     0.1240 ca         1 GQN      -0.152600
      3 C14          0.2200    -0.5350     0.2440 c          1 GQN       0.618700
      4 C12          2.3220     0.6820    -0.0580 ca         1 GQN      -0.070000
      5 C11          3.1660    -0.3200    -0.5020 ca         1 GQN      -0.028000
      6 O15          0.7390    -1.5600     0.6490 o          1 GQN      -0.577100
      7 N13          0.9270     0.5670    -0.1170 ns         1 GQN      -0.143000
      8 C06          4.5500    -0.1790    -0.4180 ca         1 GQN      -0.177600
      9 C07          5.3900    -1.3030    -0.9170 c          1 GQN       0.613700
     10 N09          6.6310    -1.3540    -0.3770 ns         1 GQN      -0.375400
     11 O10          7.4100    -2.4400    -0.6510 oh         1 GQN      -0.434100
     12 O08          4.9960    -2.0920    -1.7560 o          1 GQN      -0.555100
     13 C05          5.0820     1.0050     0.0760 ca         1 GQN      -0.060000
     14 C04          4.2500     2.0310     0.4960 ca         1 GQN      -0.194000
     15 C03          2.8700     1.8770     0.4460 ca         1 GQN       0.128100
     16 O02          1.9860     2.8020     0.8390 os         1 GQN      -0.350100
     17 C01          2.4610     4.0560     1.2970 c3         1 GQN       0.150900
     18 C27         -2.0570    -1.2180     0.9310 ca         1 GQN      -0.069500
     19 C26         -3.4360    -1.1460     0.8570 ca         1 GQN      -0.112000
     20 C19         -4.0640    -0.2800    -0.0410 cp         1 GQN      -0.008000
     21 C18         -3.2610     0.5120    -0.8630 ca         1 GQN      -0.112000
     22 C20         -5.5350    -0.2070    -0.1220 cp         1 GQN      -0.044000
     23 C25         -6.3180    -0.2990     1.0310 ca         1 GQN      -0.096000
     24 C24         -7.7000    -0.2270     0.9550 ca         1 GQN      -0.111000
     25 C23         -8.3260    -0.0620    -0.2740 ca         1 GQN      -0.103000
     26 C22         -7.5580     0.0280    -1.4270 ca         1 GQN      -0.111000
     27 C21         -6.1750    -0.0430    -1.3520 ca         1 GQN      -0.096000
     28 H1          -1.2960     1.0740    -1.4490 ha         1 GQN       0.126000
     29 H2           2.7500    -1.2230    -0.9230 ha         1 GQN       0.160000
     30 H3           0.4150     1.4270    -0.2470 hn         1 GQN       0.166000
     31 H4           6.8270    -0.9370     0.5220 hn         1 GQN       0.327500
     32 H5           8.0810    -2.1330    -1.2740 ho         1 GQN       0.448000
     33 H6           6.1520     1.1640     0.1180 ha         1 GQN       0.115000
     34 H7           4.6940     2.9450     0.8660 ha         1 GQN       0.121000
     35 H8           1.5810     4.6510     1.5260 h1         1 GQN       0.045033
     36 H9           3.0620     3.9530     2.2030 h1         1 GQN       0.045033
     37 H10          3.0490     4.5690     0.5330 h1         1 GQN       0.045033
     38 H11         -1.5960    -1.9080     1.6250 ha         1 GQN       0.126000
     39 H12         -4.0320    -1.7900     1.4910 ha         1 GQN       0.119500
     40 H13         -3.7160     1.1960    -1.5680 ha         1 GQN       0.119500
     41 H14         -5.8440    -0.4100     1.9980 ha         1 GQN       0.115000
     42 H15         -8.2910    -0.2920     1.8600 ha         1 GQN       0.114000
     43 H16         -9.4050    -0.0070    -0.3320 ha         1 GQN       0.114000
     44 H17         -8.0370     0.1480    -2.3910 ha         1 GQN       0.114000
     45 H18         -5.5900     0.0080    -2.2620 ha         1 GQN       0.115000
@<TRIPOS>BOND
     1     1     2 ar  
     2     1    21 ar  
     3     1    28 1   
     4     2     3 1   
     5     2    18 ar  
     6     3     6 2   
     7     3     7 1   
     8     4     5 ar  
     9     4     7 1   
    10     4    15 ar  
    11     5     8 ar  
    12     5    29 1   
    13     7    30 1   
    14     8     9 1   
    15     8    13 ar  
    16     9    10 1   
    17     9    12 2   
    18    10    11 1   
    19    10    31 1   
    20    11    32 1   
    21    13    14 ar  
    22    13    33 1   
    23    14    15 ar  
    24    14    34 1   
    25    15    16 1   
    26    16    17 1   
    27    17    35 1   
    28    17    36 1   
    29    17    37 1   
    30    18    19 ar  
    31    18    38 1   
    32    19    20 ar  
    33    19    39 1   
    34    20    21 ar  
    35    20    22 1   
    36    21    40 1   
    37    22    23 ar  
    38    22    27 ar  
    39    23    24 ar  
    40    23    41 1   
    41    24    25 ar  
    42    24    42 1   
    43    25    26 ar  
    44    25    43 1   
    45    26    27 ar  
    46    26    44 1   
    47    27    45 1   
@<TRIPOS>SUBSTRUCTURE
     1 GQN         1 TEMP              0 ****  ****    0 ROOT
