@<TRIPOS>MOLECULE
GQN
   45    47     1     0     0
SMALL
No Charge or Current Charge


@<TRIPOS>ATOM
      1 C17         -1.8840     0.6290     0.0270 ca         1 GQN      -0.069500
      2 C16         -1.3210    -0.6700    -0.0270 ca         1 GQN      -0.152600
      3 C14          0.1800    -0.9050    -0.0380 c          1 GQN       0.618700
      4 C12          2.3810     0.4500     0.0120 ca         1 GQN      -0.070000
      5 C11          3.3270    -0.6000    -0.0360 ca         1 GQN      -0.028000
      6 O15          0.6430    -2.0400    -0.0830 o          1 GQN      -0.577100
      7 N13          0.9700     0.2380     0.0060 ns         1 GQN      -0.143000
      8 C06          4.7160    -0.3340    -0.0260 ca         1 GQN      -0.177600
      9 C07          5.6930    -1.4940    -0.0800 c          1 GQN       0.613700
     10 N09          7.0460    -1.1760    -0.0070 ns         1 GQN      -0.375400
     11 O10          8.0480    -2.2040     0.2010 oh         1 GQN      -0.434100
     12 O08          5.3150    -2.6540    -0.1940 o          1 GQN      -0.555100
     13 C05          5.1490     1.0100     0.0290 ca         1 GQN      -0.060000
     14 C04          4.2160     2.0580     0.0760 ca         1 GQN      -0.194000
     15 C03          2.8340     1.7840     0.0690 ca         1 GQN       0.128100
     16 O02          1.8880     2.7940     0.1150 os         1 GQN      -0.350100
     17 C01          2.2450     4.1860     0.1750 c3         1 GQN       0.150900
     18 C27         -2.2000    -1.7760    -0.0710 ca         1 GQN      -0.069500
     19 C26         -3.5920    -1.5910    -0.0610 ca         1 GQN      -0.112000
     20 C19         -4.1630    -0.2980    -0.0090 cp         1 GQN      -0.008000
     21 C18         -3.2780     0.8060     0.0350 ca         1 GQN      -0.112000
     22 C20         -5.6490    -0.1030     0.0000 cp         1 GQN      -0.044000
     23 C25         -6.5050    -1.0240     0.6580 ca         1 GQN      -0.096000
     24 C24         -7.8990    -0.8420     0.6670 ca         1 GQN      -0.111000
     25 C23         -8.4680     0.2650     0.0180 ca         1 GQN      -0.103000
     26 C22         -7.6410     1.1890    -0.6410 ca         1 GQN      -0.111000
     27 C21         -6.2470     1.0070    -0.6490 ca         1 GQN      -0.096000
     28 H1          -1.2580     1.5180     0.0660 ha         1 GQN       0.126000
     29 H2           2.9990    -1.6340    -0.0800 ha         1 GQN       0.160000
     30 H3           0.4430     1.1000     0.0410 hn         1 GQN       0.166000
     31 H4           7.3210    -0.2290     0.2450 hn         1 GQN       0.327500
     32 H5           8.7170    -2.0210    -0.5010 ho         1 GQN       0.448000
     33 H6           6.2060     1.2660     0.0300 ha         1 GQN       0.115000
     34 H7           4.5890     3.0770     0.1170 ha         1 GQN       0.121000
     35 H8           1.3430     4.8090     0.2040 h1         1 GQN       0.045033
     36 H9           2.8350     4.4000     1.0760 h1         1 GQN       0.045033
     37 H10          2.8300     4.4780    -0.7070 h1         1 GQN       0.045033
     38 H11         -1.8060    -2.7890    -0.1160 ha         1 GQN       0.126000
     39 H12         -4.2360    -2.4660    -0.1100 ha         1 GQN       0.119500
     40 H13         -3.6760     1.8160     0.0900 ha         1 GQN       0.119500
     41 H14         -6.0850    -1.8810     1.1790 ha         1 GQN       0.115000
     42 H15         -8.5370    -1.5570     1.1810 ha         1 GQN       0.114000
     43 H16         -9.5470     0.4060     0.0240 ha         1 GQN       0.114000
     44 H17         -8.0800     2.0460    -1.1470 ha         1 GQN       0.114000
     45 H18         -5.6270     1.7280    -1.1760 ha         1 GQN       0.115000
@<TRIPOS>BOND
     1     1     2 ar  
     2     1    21 ar  
     3     1    28 1   
     4     2     3 1   
     5     2    18 ar  
     6     3     6 2   
     7     3     7 1   
     8     4     5 ar  
     9     4     7 1   
    10     4    15 ar  
    11     5     8 ar  
    12     5    29 1   
    13     7    30 1   
    14     8     9 1   
    15     8    13 ar  
    16     9    10 1   
    17     9    12 2   
    18    10    11 1   
    19    10    31 1   
    20    11    32 1   
    21    13    14 ar  
    22    13    33 1   
    23    14    15 ar  
    24    14    34 1   
    25    15    16 1   
    26    16    17 1   
    27    17    35 1   
    28    17    36 1   
    29    17    37 1   
    30    18    19 ar  
    31    18    38 1   
    32    19    20 ar  
    33    19    39 1   
    34    20    21 ar  
    35    20    22 1   
    36    21    40 1   
    37    22    23 ar  
    38    22    27 ar  
    39    23    24 ar  
    40    23    41 1   
    41    24    25 ar  
    42    24    42 1   
    43    25    26 ar  
    44    25    43 1   
    45    26    27 ar  
    46    26    44 1   
    47    27    45 1   
@<TRIPOS>SUBSTRUCTURE
     1 GQN         1 TEMP              0 ****  ****    0 ROOT
