@<TRIPOS>MOLECULE
GQO
   58    59     1     0     0
SMALL
No Charge or Current Charge


@<TRIPOS>ATOM
      1 N01         -5.1710     2.5960   -15.1100 nb         1 GQO      -0.279000
      2 C02         -5.2320     1.5510   -14.2590 ca         1 GQO       0.188300
      3 C03         -5.1540     0.1600   -14.8820 c3         1 GQO      -0.134700
      4 C04         -3.7020    -0.3350   -15.0360 c3         1 GQO      -0.089100
      5 C05         -5.3380     1.7540   -12.8640 ca         1 GQO      -0.126900
      6 O06         -5.3980     0.6750   -11.9980 os         1 GQO      -0.356100
      7 C07         -4.3190     0.4270   -11.0780 c3         1 GQO       0.148600
      8 C08         -4.5840    -0.9280   -10.3890 c3         1 GQO      -0.074400
      9 C09         -4.6140    -2.1240   -11.3620 c3         1 GQO       0.170600
     10 O10         -3.3120    -2.2370   -11.9590 os         1 GQO      -0.352100
     11 C11         -3.0240    -3.1540   -12.9510 ca         1 GQO       0.154100
     12 C12         -3.9880    -4.0790   -13.4140 ca         1 GQO      -0.199000
     13 C13         -3.6620    -4.9900   -14.4310 ca         1 GQO      -0.069000
     14 C14         -1.7290    -3.1490   -13.5180 ca         1 GQO      -0.118300
     15 C15         -1.4120    -4.0700   -14.5360 ca         1 GQO      -0.070000
     16 C16         -2.3750    -4.9860   -14.9910 ca         1 GQO      -0.149000
     17 C17         -0.6680    -2.1600   -13.0420 c3         1 GQO       0.017900
     18 C18         -0.0280    -2.6100   -11.7110 c3         1 GQO      -0.333400
     19 S19          1.1880    -1.4340   -11.0950 s6         1 GQO       1.176100
     20 O20          2.3420    -1.4070   -12.0000 o          1 GQO      -0.531500
     21 O21          0.5190    -0.1720   -10.7600 o          1 GQO      -0.531500
     22 N22          1.7480    -2.1010    -9.6050 n3         1 GQO      -0.710500
     23 C23          2.5030    -3.3660    -9.7300 c3         1 GQO       0.170600
     24 C24          0.7430    -2.1440    -8.5210 c3         1 GQO       0.170600
     25 C25         -5.3980     3.0960   -12.4210 ca         1 GQO       0.398900
     26 N26         -5.3430     4.1310   -13.2660 nb         1 GQO      -0.325000
     27 C27         -5.2280     3.8160   -14.5600 ca         1 GQO       0.402900
     28 N28         -5.1680     4.8600   -15.4170 nv         1 GQO      -1.048900
     29 N29         -5.5660     3.4420   -11.1150 nv         1 GQO      -1.066900
     30 H031        -5.6360     0.1590   -15.8680 hc         1 GQO       0.060200
     31 H032        -5.7130    -0.5610   -14.2750 hc         1 GQO       0.060200
     32 H041        -3.6830    -1.3540   -15.4420 hc         1 GQO       0.042033
     33 H043        -3.1400     0.3170   -15.7150 hc         1 GQO       0.042033
     34 H042        -3.1940    -0.3410   -14.0660 hc         1 GQO       0.042033
     35 H071        -3.3580     0.3890   -11.6090 h1         1 GQO       0.051200
     36 H072        -4.2550     1.2150   -10.3180 h1         1 GQO       0.051200
     37 H082        -3.8110    -1.1020    -9.6320 hc         1 GQO       0.053200
     38 H081        -5.5410    -0.8770    -9.8550 hc         1 GQO       0.053200
     39 H092        -4.8650    -3.0390   -10.8090 h1         1 GQO       0.038200
     40 H091        -5.3840    -1.9580   -12.1260 h1         1 GQO       0.038200
     41 H121        -4.9900    -4.1060   -12.9980 ha         1 GQO       0.117000
     42 H131        -4.4060    -5.7010   -14.7860 ha         1 GQO       0.111000
     43 H151        -0.4170    -4.0780   -14.9770 ha         1 GQO       0.113000
     44 H161        -2.1230    -5.6930   -15.7780 ha         1 GQO       0.116000
     45 H171         0.1150    -2.0460   -13.8030 hc         1 GQO       0.064700
     46 H172        -1.1130    -1.1640   -12.9190 hc         1 GQO       0.064700
     47 H182        -0.7940    -2.7040   -10.9350 h1         1 GQO       0.092700
     48 H181         0.4880    -3.5670   -11.8380 h1         1 GQO       0.092700
     49 H233         2.9310    -3.6590    -8.7630 h1         1 GQO       0.053533
     50 H232         1.8570    -4.1840   -10.0750 h1         1 GQO       0.053533
     51 H231         3.3360    -3.2630   -10.4390 h1         1 GQO       0.053533
     52 H243         1.2050    -2.4650    -7.5780 h1         1 GQO       0.053533
     53 H241         0.3010    -1.1540    -8.3500 h1         1 GQO       0.053533
     54 H242        -0.0670    -2.8480    -8.7560 h1         1 GQO       0.053533
     55 H281        -4.9900     5.7860   -15.0360 hn         1 GQO       0.482500
     56 H282        -4.8660     4.6890   -16.3730 hn         1 GQO       0.482500
     57 H291        -5.8450     4.3990   -10.9140 hn         1 GQO       0.489500
     58 H292        -5.9150     2.7280   -10.4830 hn         1 GQO       0.489500
@<TRIPOS>BOND
     1     1     2 ar  
     2     1    27 ar  
     3     2     3 1   
     4     2     5 ar  
     5     3     4 1   
     6     3    30 1   
     7     3    31 1   
     8     4    32 1   
     9     4    33 1   
    10     4    34 1   
    11     5     6 1   
    12     5    25 ar  
    13     6     7 1   
    14     7     8 1   
    15     7    35 1   
    16     7    36 1   
    17     8     9 1   
    18     8    37 1   
    19     8    38 1   
    20     9    10 1   
    21     9    39 1   
    22     9    40 1   
    23    10    11 1   
    24    11    12 ar  
    25    11    14 ar  
    26    12    13 ar  
    27    12    41 1   
    28    13    16 ar  
    29    13    42 1   
    30    14    15 ar  
    31    14    17 1   
    32    15    16 ar  
    33    15    43 1   
    34    16    44 1   
    35    17    18 1   
    36    17    45 1   
    37    17    46 1   
    38    18    19 1   
    39    18    47 1   
    40    18    48 1   
    41    19    20 2   
    42    19    21 2   
    43    19    22 1   
    44    22    23 1   
    45    22    24 1   
    46    23    49 1   
    47    23    50 1   
    48    23    51 1   
    49    24    52 1   
    50    24    53 1   
    51    24    54 1   
    52    25    26 ar  
    53    25    29 1   
    54    26    27 ar  
    55    27    28 1   
    56    28    55 1   
    57    28    56 1   
    58    29    57 1   
    59    29    58 1   
@<TRIPOS>SUBSTRUCTURE
     1 GQO         1 TEMP              0 ****  ****    0 ROOT
