@<TRIPOS>MOLECULE
GQO
   58    59     1     0     0
SMALL
abcg2


@<TRIPOS>ATOM
      1 N01         -4.0300     2.9380   -14.7370 nb         1 GQO      -0.279000
      2 C02         -4.1540     1.7630   -14.1060 ca         1 GQO       0.188300
      3 C03         -3.3000     0.6430   -14.6270 c3         1 GQO      -0.134700
      4 C04         -1.8090     0.9330   -14.4710 c3         1 GQO      -0.089100
      5 C05         -5.0180     1.6060   -13.0450 ca         1 GQO      -0.126900
      6 O06         -5.1960     0.4290   -12.3750 os         1 GQO      -0.356100
      7 C07         -4.2970     0.2320   -11.2850 c3         1 GQO       0.148600
      8 C08         -4.7600    -0.9570   -10.4680 c3         1 GQO      -0.074400
      9 C09         -4.9240    -2.2460   -11.2480 c3         1 GQO       0.170600
     10 O10         -3.6950    -2.5260   -11.8940 os         1 GQO      -0.352100
     11 C11         -3.5700    -3.6270   -12.6590 ca         1 GQO       0.154100
     12 C12         -4.5480    -4.6100   -12.7770 ca         1 GQO      -0.199000
     13 C13         -4.3140    -5.7220   -13.5790 ca         1 GQO      -0.069000
     14 C14         -2.3580    -3.7440   -13.3570 ca         1 GQO      -0.118300
     15 C15         -2.1520    -4.8650   -14.1460 ca         1 GQO      -0.070000
     16 C16         -3.1190    -5.8580   -14.2640 ca         1 GQO      -0.149000
     17 C17         -1.3140    -2.6690   -13.2360 c3         1 GQO       0.017900
     18 C18         -0.5370    -2.7990   -11.9230 c3         1 GQO      -0.333400
     19 S19          0.3680    -1.2940   -11.5590 s6         1 GQO       1.176100
     20 O20          1.1890    -0.9670   -12.7170 o          1 GQO      -0.531500
     21 O21         -0.5870    -0.3050   -11.0760 o          1 GQO      -0.531500
     22 N22          1.3940    -1.6270   -10.3050 n3         1 GQO      -0.710500
     23 C23          2.5410    -2.4770   -10.6020 c3         1 GQO       0.170600
     24 C24          0.7760    -1.8900    -9.0100 c3         1 GQO       0.170600
     25 C25         -5.7710     2.7360   -12.6530 ca         1 GQO       0.398900
     26 N26         -5.6440     3.8970   -13.2830 nb         1 GQO      -0.325000
     27 C27         -4.7740     3.9430   -14.2920 ca         1 GQO       0.402900
     28 N28         -4.6770     5.1270   -14.9540 nv         1 GQO      -1.048900
     29 N29         -6.6200     2.6650   -11.6100 nv         1 GQO      -1.066900
     30 H031        -3.5300     0.5150   -15.6880 hc         1 GQO       0.060200
     31 H032        -3.5550    -0.2960   -14.1370 hc         1 GQO       0.060200
     32 H041        -1.2160     0.1300   -14.9090 hc         1 GQO       0.042033
     33 H043        -1.5370     1.8610   -14.9720 hc         1 GQO       0.042033
     34 H042        -1.5250     1.0180   -13.4220 hc         1 GQO       0.042033
     35 H071        -3.2810     0.0760   -11.6620 h1         1 GQO       0.051200
     36 H072        -4.2730     1.1210   -10.6470 h1         1 GQO       0.051200
     37 H082        -4.0410    -1.1050    -9.6590 hc         1 GQO       0.053200
     38 H081        -5.7190    -0.7320    -9.9940 hc         1 GQO       0.053200
     39 H092        -5.1920    -3.0550   -10.5600 h1         1 GQO       0.038200
     40 H091        -5.7280    -2.1600   -11.9860 h1         1 GQO       0.038200
     41 H121        -5.4900    -4.5280   -12.2520 ha         1 GQO       0.117000
     42 H131        -5.0800    -6.4810   -13.6620 ha         1 GQO       0.111000
     43 H151        -1.2170    -4.9580   -14.6870 ha         1 GQO       0.113000
     44 H161        -2.9380    -6.7230   -14.8890 ha         1 GQO       0.116000
     45 H171        -0.6190    -2.7420   -14.0720 hc         1 GQO       0.064700
     46 H172        -1.7860    -1.6880   -13.3010 hc         1 GQO       0.064700
     47 H182        -1.1960    -2.9730   -11.0720 h1         1 GQO       0.092700
     48 H181         0.1760    -3.6230   -11.9780 h1         1 GQO       0.092700
     49 H233         3.2640    -2.3540    -9.7970 h1         1 GQO       0.053533
     50 H232         2.2790    -3.5380   -10.6670 h1         1 GQO       0.053533
     51 H231         3.0180    -2.1700   -11.5280 h1         1 GQO       0.053533
     52 H243         1.5460    -1.7890    -8.2460 h1         1 GQO       0.053533
     53 H241         0.0000    -1.1610    -8.7970 h1         1 GQO       0.053533
     54 H242         0.3540    -2.8960    -8.9380 h1         1 GQO       0.053533
     55 H281        -5.0160     5.9480   -14.4830 hn         1 GQO       0.482500
     56 H282        -3.8680     5.2630   -15.5350 hn         1 GQO       0.482500
     57 H291        -7.2630     3.4260   -11.4680 hn         1 GQO       0.489500
     58 H292        -6.9090     1.7650   -11.2670 hn         1 GQO       0.489500
@<TRIPOS>BOND
     1     1     2 ar  
     2     1    27 ar  
     3     2     3 1   
     4     2     5 ar  
     5     3     4 1   
     6     3    30 1   
     7     3    31 1   
     8     4    32 1   
     9     4    33 1   
    10     4    34 1   
    11     5     6 1   
    12     5    25 ar  
    13     6     7 1   
    14     7     8 1   
    15     7    35 1   
    16     7    36 1   
    17     8     9 1   
    18     8    37 1   
    19     8    38 1   
    20     9    10 1   
    21     9    39 1   
    22     9    40 1   
    23    10    11 1   
    24    11    12 ar  
    25    11    14 ar  
    26    12    13 ar  
    27    12    41 1   
    28    13    16 ar  
    29    13    42 1   
    30    14    15 ar  
    31    14    17 1   
    32    15    16 ar  
    33    15    43 1   
    34    16    44 1   
    35    17    18 1   
    36    17    45 1   
    37    17    46 1   
    38    18    19 1   
    39    18    47 1   
    40    18    48 1   
    41    19    20 2   
    42    19    21 2   
    43    19    22 1   
    44    22    23 1   
    45    22    24 1   
    46    23    49 1   
    47    23    50 1   
    48    23    51 1   
    49    24    52 1   
    50    24    53 1   
    51    24    54 1   
    52    25    26 ar  
    53    25    29 1   
    54    26    27 ar  
    55    27    28 1   
    56    28    55 1   
    57    28    56 1   
    58    29    57 1   
    59    29    58 1   
@<TRIPOS>SUBSTRUCTURE
     1 GQO         1 TEMP              0 ****  ****    0 ROOT
