@<TRIPOS>MOLECULE
GQP
   28    30     1     0     0
SMALL
abcg2


@<TRIPOS>ATOM
      1 N1           2.6870    -2.0930    -0.3770 nc         1 GQP      -0.570100
      2 C4           1.7410    -0.1290     0.2860 ca         1 GQP      -0.077200
      3 C5           2.7920    -0.7220    -0.4340 ca         1 GQP       0.064400
      4 C6           3.7400     0.0820    -1.0670 ca         1 GQP      -0.049000
      5 C7           1.6270    -2.3120     0.3440 cd         1 GQP       0.415700
      6 C10         -1.7330    -0.8610    -0.3730 ca         1 GQP      -0.066000
      7 C13         -3.0900     1.2230     0.8680 ca         1 GQP      -0.151500
      8 C1           3.6040     1.4530    -0.9570 ca         1 GQP      -0.135000
      9 C11         -2.8020    -0.2600    -1.0200 ca         1 GQP      -0.151500
     10 C12         -3.4630     0.7740    -0.3820 ca         1 GQP       0.182000
     11 C14         -2.0130     0.6100     1.4960 ca         1 GQP      -0.066000
     12 C2           2.5470     2.0280    -0.2340 ca         1 GQP      -0.095000
     13 C3           1.5960     1.2490     0.4010 ca         1 GQP      -0.109000
     14 C9          -1.3280    -0.4340     0.8890 ca         1 GQP      -0.133300
     15 N2           1.0100    -1.1820     0.7770 na         1 GQP      -0.187600
     16 H1           4.5580    -0.3600    -1.6230 ha         1 GQP       0.128000
     17 H2           1.2370    -3.2870     0.6020 h5         1 GQP       0.058800
     18 H3           0.0570    -0.5740     2.5210 h1         1 GQP       0.063700
     19 H4          -0.4440    -2.1240     1.8750 h1         1 GQP       0.063700
     20 H5          -1.2120    -1.6710    -0.8690 ha         1 GQP       0.120500
     21 H6          -3.6230     2.0360     1.3440 ha         1 GQP       0.136000
     22 H7           4.3260     2.1010    -1.4380 ha         1 GQP       0.113000
     23 H8          -3.1160    -0.5910    -2.0010 ha         1 GQP       0.136000
     24 H9          -1.7090     0.9590     2.4750 ha         1 GQP       0.120500
     25 H10          2.4740     3.1060    -0.1720 ha         1 GQP       0.112000
     26 H11          0.7810     1.7010     0.9510 ha         1 GQP       0.119000
     27 C8          -0.1780    -1.1040     1.5960 c3         1 GQP       0.134900
     28 F1          -4.5000     1.3600    -1.0020 f          1 GQP      -0.175000
@<TRIPOS>BOND
     1     1     3 1   
     2     1     5 2   
     3     2     3 ar  
     4     2    13 ar  
     5     2    15 1   
     6     3     4 ar  
     7     4     8 ar  
     8     4    16 1   
     9     5    15 1   
    10     5    17 1   
    11     6     9 ar  
    12     6    14 ar  
    13     6    20 1   
    14     7    10 ar  
    15     7    11 ar  
    16     7    21 1   
    17     8    12 ar  
    18     8    22 1   
    19     9    10 ar  
    20     9    23 1   
    21    10    28 1   
    22    11    14 ar  
    23    11    24 1   
    24    12    13 ar  
    25    12    25 1   
    26    13    26 1   
    27    14    27 1   
    28    15    27 1   
    29    18    27 1   
    30    19    27 1   
@<TRIPOS>SUBSTRUCTURE
     1 GQP         1 TEMP              0 ****  ****    0 ROOT
