@<TRIPOS>MOLECULE
GQP
   28    30     1     0     0
SMALL
No Charge or Current Charge


@<TRIPOS>ATOM
      1 N1           2.7700    -2.1560    -0.3690 nc         1 GQP      -0.570100
      2 C4           1.7930    -0.1970     0.2720 ca         1 GQP      -0.077200
      3 C5           2.8170    -0.7720    -0.4290 ca         1 GQP       0.064400
      4 C6           3.7580     0.0260    -1.0980 ca         1 GQP      -0.049000
      5 C7           1.6780    -2.3810     0.3930 cd         1 GQP       0.415700
      6 C10         -1.6380    -0.7180    -0.4250 ca         1 GQP      -0.066000
      7 C13         -3.2530     1.1350     0.9410 ca         1 GQP      -0.151500
      8 C1           3.6230     1.4300    -1.0330 ca         1 GQP      -0.135000
      9 C11         -2.7290    -0.1180    -1.0780 ca         1 GQP      -0.151500
     10 C12         -3.5320     0.8070    -0.3940 ca         1 GQP       0.182000
     11 C14         -2.1620     0.5370     1.5970 ca         1 GQP      -0.066000
     12 C2           2.5590     2.0130    -0.3050 ca         1 GQP      -0.095000
     13 C3           1.6250     1.1940     0.3600 ca         1 GQP      -0.109000
     14 C9          -1.3450    -0.3900     0.9170 ca         1 GQP      -0.133300
     15 N2           1.0390    -1.2030     0.8120 na         1 GQP      -0.187600
     16 H1           4.5730    -0.4300    -1.6550 ha         1 GQP       0.128000
     17 H2           1.2950    -3.3550     0.6770 h5         1 GQP       0.058800
     18 H3           0.1120    -0.4170     2.5130 h1         1 GQP       0.063700
     19 H4          -0.4700    -2.0130     2.0220 h1         1 GQP       0.063700
     20 H5          -1.0240    -1.4360    -0.9640 ha         1 GQP       0.120500
     21 H6          -3.8810     1.8510     1.4640 ha         1 GQP       0.136000
     22 H7           4.3420     2.0670    -1.5450 ha         1 GQP       0.113000
     23 H8          -2.9530    -0.3690    -2.1110 ha         1 GQP       0.136000
     24 H9          -1.9530     0.7970     2.6320 ha         1 GQP       0.120500
     25 H10          2.4610     3.0950    -0.2600 ha         1 GQP       0.112000
     26 H11          0.8020     1.6310     0.9210 ha         1 GQP       0.119000
     27 C8          -0.1620    -1.0300     1.6440 c3         1 GQP       0.134900
     28 F1          -4.5800     1.3820    -1.0230 f          1 GQP      -0.175000
@<TRIPOS>BOND
     1     1     3 1   
     2     1     5 2   
     3     2     3 ar  
     4     2    13 ar  
     5     2    15 1   
     6     3     4 ar  
     7     4     8 ar  
     8     4    16 1   
     9     5    15 1   
    10     5    17 1   
    11     6     9 ar  
    12     6    14 ar  
    13     6    20 1   
    14     7    10 ar  
    15     7    11 ar  
    16     7    21 1   
    17     8    12 ar  
    18     8    22 1   
    19     9    10 ar  
    20     9    23 1   
    21    10    28 1   
    22    11    14 ar  
    23    11    24 1   
    24    12    13 ar  
    25    12    25 1   
    26    13    26 1   
    27    14    27 1   
    28    15    27 1   
    29    18    27 1   
    30    19    27 1   
@<TRIPOS>SUBSTRUCTURE
     1 GQP         1 TEMP              0 ****  ****    0 ROOT
