@<TRIPOS>MOLECULE
GQQ
   85    86     1     0     0
SMALL
bcc


@<TRIPOS>ATOM
      1 C4           5.5220    -4.5420     1.6590 ca         1 GQQ       0.285900
      2 C6           5.5060    -2.8460     0.1610 ca         1 GQQ       0.233500
      3 C7           4.7600    -1.7590    -0.5560 c          1 GQQ       0.581600
      4 C10          1.4860    -0.4210     0.2420 c          1 GQQ       0.664100
      5 C13         -1.4190     1.0950     0.3110 c          1 GQQ       0.653100
      6 C15         -3.7700     0.3590     0.5830 c3         1 GQQ       0.115700
      7 C17         -3.2850    -2.0020    -0.2110 ca         1 GQQ      -0.083300
      8 C20         -1.7480    -3.6390    -1.9170 ca         1 GQQ      -0.090300
      9 C21         -0.9500    -4.5510    -2.8100 c3         1 GQQ       0.196100
     10 C24         -3.7640    -2.3870    -1.4640 ca         1 GQQ      -0.121500
     11 C28         -5.2880     5.3310     1.7570 c3         1 GQQ      -0.223300
     12 C18         -2.0210    -2.4380     0.1660 ca         1 GQQ      -0.121500
     13 C19         -1.2630    -3.2400    -0.6780 ca         1 GQQ      -0.110000
     14 N22         -1.6750    -5.7860    -3.0710 n8         1 GQQ      -0.885800
     15 C23         -3.0140    -3.1980    -2.3000 ca         1 GQQ      -0.110000
     16 C16         -4.1180    -1.1320     0.6870 c3         1 GQQ      -0.045100
     17 C25         -4.7710     1.2000     1.3770 c3         1 GQQ      -0.067400
     18 S27         -5.6810     3.6440     2.1610 s6         1 GQQ       0.998000
     19 O29         -7.0300     3.3470     1.6760 o          1 GQQ      -0.589300
     20 O30         -5.4080     3.4250     3.5820 o          1 GQQ      -0.589300
     21 N14         -2.4220     0.5970     1.0500 ns         1 GQQ      -0.564900
     22 O31         -1.5260     1.4490    -0.8510 o          1 GQQ      -0.601100
     23 C12         -0.0980     1.2530     1.0670 c3         1 GQQ       0.031700
     24 C32          0.0680     2.7140     1.4880 c3         1 GQQ      -0.083400
     25 C33          1.3590     3.0150     2.2510 c3         1 GQQ      -0.058700
     26 C38          1.3820     4.4880     2.6470 c3         1 GQQ      -0.092100
     27 C34          1.5340     2.1210     3.4740 c3         1 GQQ      -0.092100
     28 N11          1.0040     0.8300     0.2390 ns         1 GQQ      -0.548900
     29 O39          1.1070    -1.2900     1.0120 o          1 GQQ      -0.616100
     30 C9           2.5580    -0.7160    -0.8020 c3         1 GQQ       0.039700
     31 C40          1.9330    -1.2870    -2.0880 c3         1 GQQ      -0.089400
     32 C41          1.0220    -0.3480    -2.8780 c3         1 GQQ      -0.065700
     33 C43          1.7370     0.9240    -3.3220 c3         1 GQQ      -0.086600
     34 C42          0.4630    -1.0850    -4.0910 c3         1 GQQ      -0.086600
     35 N8           3.4740    -1.6640    -0.2150 ns         1 GQQ      -0.546900
     36 O44          5.3240    -1.0420    -1.3710 o          1 GQQ      -0.605100
     37 N6           4.8460    -3.5940     1.0360 nb         1 GQQ      -0.634000
     38 C3           6.8740    -4.7460     1.4060 ca         1 GQQ       0.303900
     39 N2           7.5380    -4.0040     0.5330 nb         1 GQQ      -0.635000
     40 C1           6.8570    -3.0530    -0.0910 ca         1 GQQ       0.343900
     41 H1           4.9890    -5.1550     2.3750 h4         1 GQQ       0.035100
     42 H2          -3.8070     0.6590    -0.4660 h1         1 GQQ       0.090700
     43 H3          -0.7760    -4.0610    -3.7720 h1         1 GQQ       0.033200
     44 H4           0.0420    -4.7030    -2.3620 h1         1 GQQ       0.033200
     45 H5          -4.7470    -2.0560    -1.7820 ha         1 GQQ       0.130500
     46 H6          -3.5140     2.9720     1.5490 h1         1 GQQ       0.098700
     47 H7          -4.6190     2.9940     0.1610 h1         1 GQQ       0.098700
     48 H8          -5.4290     5.4890     0.6910 h1         1 GQQ       0.104033
     49 H9          -5.9700     5.9650     2.3220 h1         1 GQQ       0.104033
     50 H10         -4.2610     5.5420     2.0430 h1         1 GQQ       0.104033
     51 H11         -1.6160    -2.1630     1.1320 ha         1 GQQ       0.130500
     52 H12         -0.2800    -3.5670    -0.3580 ha         1 GQQ       0.137500
     53 H13         -1.1450    -6.3560    -3.7180 hn         1 GQQ       0.339800
     54 H14         -1.7410    -6.3240    -2.2150 hn         1 GQQ       0.339800
     55 H16         -3.4180    -3.4980    -3.2590 ha         1 GQQ       0.137500
     56 H17         -4.0120    -1.4470     1.7300 hc         1 GQQ       0.053700
     57 H18         -5.1740    -1.2500     0.4350 hc         1 GQQ       0.053700
     58 H19         -5.7760     0.9580     1.0280 hc         1 GQQ       0.066700
     59 H20         -4.7200     0.9250     2.4340 hc         1 GQQ       0.066700
     60 H21         -2.2160     0.3090     1.9950 hn         1 GQQ       0.314500
     61 H22         -0.1020     0.6190     1.9550 h1         1 GQQ       0.086700
     62 H23          0.0160     3.3520     0.6000 hc         1 GQQ       0.052200
     63 H24         -0.7910     2.9820     2.1120 hc         1 GQQ       0.052200
     64 H25          2.2030     2.8400     1.5750 hc         1 GQQ       0.049700
     65 H26          2.3330     4.7540     3.1110 hc         1 GQQ       0.036367
     66 H27          1.2430     5.1370     1.7800 hc         1 GQQ       0.036367
     67 H28          0.5890     4.7160     3.3640 hc         1 GQQ       0.036367
     68 H29          1.6700     1.0730     3.2040 hc         1 GQQ       0.036367
     69 H30          2.4130     2.4200     4.0480 hc         1 GQQ       0.036367
     70 H31          0.6660     2.1880     4.1340 hc         1 GQQ       0.036367
     71 H32          1.3590     1.4870    -0.4380 hn         1 GQQ       0.330500
     72 H33          3.1120     0.1950    -1.0380 h1         1 GQQ       0.084700
     73 H34          2.7610    -1.6020    -2.7310 hc         1 GQQ       0.056700
     74 H35          1.3810    -2.1940    -1.8250 hc         1 GQQ       0.056700
     75 H36          0.1710    -0.0640    -2.2530 hc         1 GQQ       0.067700
     76 H37          1.0620     1.5670    -3.8880 hc         1 GQQ       0.033533
     77 H38          2.1160     1.5200    -2.4890 hc         1 GQQ       0.033533
     78 H39          2.5900     0.6900    -3.9640 hc         1 GQQ       0.033533
     79 H40         -0.1140    -1.9600    -3.7900 hc         1 GQQ       0.033533
     80 H41         -0.1960    -0.4380    -4.6720 hc         1 GQQ       0.033533
     81 H42          1.2650    -1.4220    -4.7530 hc         1 GQQ       0.033533
     82 H43          3.1050    -2.3280     0.4520 hn         1 GQQ       0.361500
     83 H44          7.4200    -5.5260     1.9230 h4         1 GQQ       0.034100
     84 H45          7.3930    -2.4420    -0.8060 h4         1 GQQ       0.056100
     85 C26         -4.5090     2.6870     1.2030 c3         1 GQQ      -0.182600
@<TRIPOS>BOND
     1     1    37 ar  
     2     1    38 ar  
     3     1    41 1   
     4     2     3 1   
     5     2    37 ar  
     6     2    40 ar  
     7     3    35 1   
     8     3    36 2   
     9     4    28 1   
    10     4    29 2   
    11     4    30 1   
    12     5    21 1   
    13     5    22 2   
    14     5    23 1   
    15     6    16 1   
    16     6    17 1   
    17     6    21 1   
    18     6    42 1   
    19     7    10 ar  
    20     7    12 ar  
    21     7    16 1   
    22     8     9 1   
    23     8    13 ar  
    24     8    15 ar  
    25     9    14 1   
    26     9    43 1   
    27     9    44 1   
    28    10    15 ar  
    29    10    45 1   
    30    11    18 1   
    31    11    48 1   
    32    11    49 1   
    33    11    50 1   
    34    12    13 ar  
    35    12    51 1   
    36    13    52 1   
    37    14    53 1   
    38    14    54 1   
    39    15    55 1   
    40    16    56 1   
    41    16    57 1   
    42    17    58 1   
    43    17    59 1   
    44    17    85 1   
    45    18    19 2   
    46    18    20 2   
    47    18    85 1   
    48    21    60 1   
    49    23    24 1   
    50    23    28 1   
    51    23    61 1   
    52    24    25 1   
    53    24    62 1   
    54    24    63 1   
    55    25    26 1   
    56    25    27 1   
    57    25    64 1   
    58    26    65 1   
    59    26    66 1   
    60    26    67 1   
    61    27    68 1   
    62    27    69 1   
    63    27    70 1   
    64    28    71 1   
    65    30    31 1   
    66    30    35 1   
    67    30    72 1   
    68    31    32 1   
    69    31    73 1   
    70    31    74 1   
    71    32    33 1   
    72    32    34 1   
    73    32    75 1   
    74    33    76 1   
    75    33    77 1   
    76    33    78 1   
    77    34    79 1   
    78    34    80 1   
    79    34    81 1   
    80    35    82 1   
    81    38    39 ar  
    82    38    83 1   
    83    39    40 ar  
    84    40    84 1   
    85    46    85 1   
    86    47    85 1   
@<TRIPOS>SUBSTRUCTURE
     1 GQQ         1 TEMP              0 ****  ****    0 ROOT
