@<TRIPOS>MOLECULE
GQQ
   85    86     1     0     0
SMALL
No Charge or Current Charge


@<TRIPOS>ATOM
      1 C4           6.6160    -4.0150     1.0930 ca         1 GQQ       0.285900
      2 C6           6.0540    -2.3990    -0.4720 ca         1 GQQ       0.233500
      3 C7           5.0490    -1.4690    -1.1340 c          1 GQQ       0.514600
      4 C10          1.5460    -0.6510     0.0320 c          1 GQQ       0.597100
      5 C13         -1.6880     1.0200     0.1250 c          1 GQQ       0.586100
      6 C15         -4.1920     0.8220     0.2820 c3         1 GQQ       0.115700
      7 C17         -3.6400    -1.6430    -0.1470 ca         1 GQQ      -0.083300
      8 C20         -1.6170    -3.4270    -1.0020 ca         1 GQQ      -0.090300
      9 C21         -0.5240    -4.3860    -1.4570 c3         1 GQQ       0.196100
     10 C24         -3.3940    -1.8330    -1.5200 ca         1 GQQ      -0.103500
     11 C28         -5.0700     6.0550     1.4330 c3         1 GQQ      -0.334100
     12 C18         -2.8680    -2.3500     0.7950 ca         1 GQQ      -0.103500
     13 C19         -1.8610    -3.2330     0.3710 ca         1 GQQ      -0.092000
     14 N22         -1.0310    -5.7650    -1.5750 n8         1 GQQ      -0.996200
     15 C23         -2.3900    -2.7220    -1.9450 ca         1 GQQ      -0.092000
     16 C16         -4.6960    -0.6430     0.3210 c3         1 GQQ      -0.045100
     17 C25         -5.1610     1.8110     0.9710 c3         1 GQQ      -0.067400
     18 S27         -5.8390     4.4540     1.6590 s6         1 GQQ       1.078000
     19 O29         -7.0890     4.4430     0.8890 o          1 GQQ      -0.518500
     20 O30         -5.8760     4.1730     3.1000 o          1 GQQ      -0.518500
     21 N14         -2.8480     0.9080     0.8630 ns         1 GQQ      -0.497900
     22 O31         -1.6980     1.2900    -1.0700 o          1 GQQ      -0.601100
     23 C12         -0.3830     0.7460     0.9220 c3         1 GQQ       0.031700
     24 C32         -0.0230     1.9430     1.8430 c3         1 GQQ      -0.083400
     25 C33          1.1810     1.7180     2.8010 c3         1 GQQ      -0.058700
     26 C38          1.5830     3.0360     3.5000 c3         1 GQQ      -0.092100
     27 C34          0.9100     0.6090     3.8470 c3         1 GQQ      -0.092100
     28 N11          0.7190     0.4510    -0.0210 ns         1 GQQ      -0.481900
     29 O39          1.4620    -1.4840     0.9260 o          1 GQQ      -0.616100
     30 C9           2.6090    -0.7400    -1.1040 c3         1 GQQ       0.039700
     31 C40          2.0500    -1.3780    -2.4110 c3         1 GQQ      -0.089400
     32 C41          0.8730    -0.6360    -3.1080 c3         1 GQQ      -0.065700
     33 C43          1.2310     0.8170    -3.5080 c3         1 GQQ      -0.086600
     34 C42          0.3840    -1.4240    -4.3450 c3         1 GQQ      -0.086600
     35 N8           3.7660    -1.5260    -0.6240 ns         1 GQQ      -0.479900
     36 O44          5.3380    -0.7100    -2.0530 o          1 GQQ      -0.605100
     37 N6           5.6500    -3.2160     0.5600 nb         1 GQQ      -0.634000
     38 C3           7.9530    -4.0090     0.6190 ca         1 GQQ       0.303900
     39 N2           8.3620    -3.2040    -0.4020 nb         1 GQQ      -0.635000
     40 C1           7.3970    -2.4020    -0.9390 ca         1 GQQ       0.343900
     41 H1           6.3170    -4.6700     1.9110 h4         1 GQQ       0.035100
     42 H2          -4.1310     1.1130    -0.7760 h1         1 GQQ       0.090700
     43 H3          -0.1300    -4.0720    -2.4320 h1         1 GQQ       0.033200
     44 H4           0.3040    -4.3720    -0.7340 h1         1 GQQ       0.033200
     45 H5          -3.9740    -1.2850    -2.2580 ha         1 GQQ       0.112500
     46 H6          -3.7320     3.4240     1.4000 h1         1 GQQ       0.098700
     47 H7          -4.5900     3.6040    -0.1570 h1         1 GQQ       0.098700
     48 H8          -4.9600     6.2240     0.3570 h1         1 GQQ       0.104033
     49 H9          -5.7280     6.8040     1.8850 h1         1 GQQ       0.104033
     50 H10         -4.0960     6.0310     1.9330 h1         1 GQQ       0.104033
     51 H11         -3.0380    -2.2070     1.8600 ha         1 GQQ       0.112500
     52 H12         -1.2680    -3.7660     1.1110 ha         1 GQQ       0.119500
     53 H13         -0.2450    -6.3910    -1.7870 hn         1 GQQ       0.395000
     54 H14         -1.3500    -6.0760    -0.6510 hn         1 GQQ       0.395000
     55 H16         -2.2120    -2.8610    -3.0090 ha         1 GQQ       0.119500
     56 H17         -5.0070    -0.8860     1.3450 hc         1 GQQ       0.053700
     57 H18         -5.5980    -0.7280    -0.2970 hc         1 GQQ       0.053700
     58 H19         -6.1500     1.7160     0.5040 hc         1 GQQ       0.066700
     59 H20         -5.2800     1.5230     2.0240 hc         1 GQQ       0.066700
     60 H21         -2.7430     0.6940     1.8470 hn         1 GQQ       0.314500
     61 H22         -0.5840    -0.1410     1.5350 h1         1 GQQ       0.086700
     62 H23          0.1840     2.8130     1.2070 hc         1 GQQ       0.052200
     63 H24         -0.9000     2.2090     2.4450 hc         1 GQQ       0.052200
     64 H25          2.0430     1.4020     2.2000 hc         1 GQQ       0.049700
     65 H26          2.4600     2.8850     4.1400 hc         1 GQQ       0.036367
     66 H27          1.8350     3.8070     2.7610 hc         1 GQQ       0.036367
     67 H28          0.7640     3.4140     4.1240 hc         1 GQQ       0.036367
     68 H29          0.7290    -0.3580     3.3670 hc         1 GQQ       0.036367
     69 H30          1.7720     0.4900     4.5140 hc         1 GQQ       0.036367
     70 H31          0.0350     0.8570     4.4610 hc         1 GQQ       0.036367
     71 H32          0.8340     1.0690    -0.8160 hn         1 GQQ       0.330500
     72 H33          2.9550     0.2810    -1.3100 h1         1 GQQ       0.084700
     73 H34          2.8700    -1.4700    -3.1330 hc         1 GQQ       0.056700
     74 H35          1.7320    -2.4020    -2.1810 hc         1 GQQ       0.056700
     75 H36          0.0270    -0.5980    -2.4110 hc         1 GQQ       0.067700
     76 H37          0.3840     1.2970    -4.0120 hc         1 GQQ       0.033533
     77 H38          1.4820     1.4280    -2.6340 hc         1 GQQ       0.033533
     78 H39          2.0880     0.8320    -4.1930 hc         1 GQQ       0.033533
     79 H40          0.0960    -2.4450    -4.0710 hc         1 GQQ       0.033533
     80 H41         -0.4920    -0.9370    -4.7930 hc         1 GQQ       0.033533
     81 H42          1.1700    -1.4830    -5.1070 hc         1 GQQ       0.033533
     82 H43          3.6280    -2.1720     0.1500 hn         1 GQQ       0.361500
     83 H44          8.7050    -4.6590     1.0640 h4         1 GQQ       0.034100
     84 H45          7.7090    -1.7530    -1.7560 h4         1 GQQ       0.056100
     85 C26         -4.6920     3.2900     0.8880 c3         1 GQQ      -0.293400
@<TRIPOS>BOND
     1     1    37 ar  
     2     1    38 ar  
     3     1    41 1   
     4     2     3 1   
     5     2    37 ar  
     6     2    40 ar  
     7     3    35 1   
     8     3    36 2   
     9     4    28 1   
    10     4    29 2   
    11     4    30 1   
    12     5    21 1   
    13     5    22 2   
    14     5    23 1   
    15     6    16 1   
    16     6    17 1   
    17     6    21 1   
    18     6    42 1   
    19     7    10 ar  
    20     7    12 ar  
    21     7    16 1   
    22     8     9 1   
    23     8    13 ar  
    24     8    15 ar  
    25     9    14 1   
    26     9    43 1   
    27     9    44 1   
    28    10    15 ar  
    29    10    45 1   
    30    11    18 1   
    31    11    48 1   
    32    11    49 1   
    33    11    50 1   
    34    12    13 ar  
    35    12    51 1   
    36    13    52 1   
    37    14    53 1   
    38    14    54 1   
    39    15    55 1   
    40    16    56 1   
    41    16    57 1   
    42    17    58 1   
    43    17    59 1   
    44    17    85 1   
    45    18    19 2   
    46    18    20 2   
    47    18    85 1   
    48    21    60 1   
    49    23    24 1   
    50    23    28 1   
    51    23    61 1   
    52    24    25 1   
    53    24    62 1   
    54    24    63 1   
    55    25    26 1   
    56    25    27 1   
    57    25    64 1   
    58    26    65 1   
    59    26    66 1   
    60    26    67 1   
    61    27    68 1   
    62    27    69 1   
    63    27    70 1   
    64    28    71 1   
    65    30    31 1   
    66    30    35 1   
    67    30    72 1   
    68    31    32 1   
    69    31    73 1   
    70    31    74 1   
    71    32    33 1   
    72    32    34 1   
    73    32    75 1   
    74    33    76 1   
    75    33    77 1   
    76    33    78 1   
    77    34    79 1   
    78    34    80 1   
    79    34    81 1   
    80    35    82 1   
    81    38    39 ar  
    82    38    83 1   
    83    39    40 ar  
    84    40    84 1   
    85    46    85 1   
    86    47    85 1   
@<TRIPOS>SUBSTRUCTURE
     1 GQQ         1 TEMP              0 ****  ****    0 ROOT
