@<TRIPOS>MOLECULE
GQR
   21    22     1     0     0
SMALL
bcc


@<TRIPOS>ATOM
      1 N1          33.5580    14.8820   -61.9950 n8         1 GQR      -0.875800
      2 C9          34.0540    16.1360   -62.5560 c5         1 GQR       0.205800
      3 C5          34.5030    17.1410   -61.5170 ca         1 GQR      -0.142300
      4 C6          35.6630    17.1410   -60.7570 ca         1 GQR      -0.110000
      5 C1          35.8500    18.1390   -59.8060 ca         1 GQR      -0.133000
      6 C8          32.9390    16.9090   -63.2840 c5         1 GQR      -0.076400
      7 C7          32.3690    17.8980   -62.2540 c5         1 GQR      -0.039100
      8 C4          33.5320    18.1210   -61.3270 ca         1 GQR      -0.079300
      9 C3          33.7130    19.1140   -60.3750 ca         1 GQR      -0.118000
     10 C2          34.8790    19.1190   -59.6160 ca         1 GQR      -0.123000
     11 H1          34.3040    14.4260   -61.4810 hn         1 GQR       0.339300
     12 H2          32.8380    15.0770   -61.3070 hn         1 GQR       0.339300
     13 H4          34.8650    15.8820   -63.2430 h1         1 GQR       0.070700
     14 H5          36.4210    16.3800   -60.9050 ha         1 GQR       0.130000
     15 H6          36.7550    18.1580   -59.2130 ha         1 GQR       0.130000
     16 H7          33.3760    17.4690   -64.1120 hc         1 GQR       0.056200
     17 H8          32.1880    16.2390   -63.7030 hc         1 GQR       0.056200
     18 H9          32.0080    18.8190   -62.7130 hc         1 GQR       0.053700
     19 H10         31.5230    17.4690   -61.7070 hc         1 GQR       0.053700
     20 H11         32.9630    19.8810   -60.2250 ha         1 GQR       0.132000
     21 H12         35.0360    19.8920   -58.8760 ha         1 GQR       0.130000
@<TRIPOS>BOND
     1     1     2 1   
     2     1    11 1   
     3     1    12 1   
     4     2     3 1   
     5     2     6 1   
     6     2    13 1   
     7     3     4 ar  
     8     3     8 ar  
     9     4     5 ar  
    10     4    14 1   
    11     5    10 ar  
    12     5    15 1   
    13     6     7 1   
    14     6    16 1   
    15     6    17 1   
    16     7     8 1   
    17     7    18 1   
    18     7    19 1   
    19     8     9 ar  
    20     9    10 ar  
    21     9    20 1   
    22    10    21 1   
@<TRIPOS>SUBSTRUCTURE
     1 GQR         1 TEMP              0 ****  ****    0 ROOT
