@<TRIPOS>MOLECULE
GQR
   21    22     1     0     0
SMALL
No Charge or Current Charge


@<TRIPOS>ATOM
      1 N1          33.5850    14.9070   -61.9280 n8         1 GQR      -0.986200
      2 C9          34.0800    16.1150   -62.5940 c5         1 GQR       0.205800
      3 C5          34.4790    17.1020   -61.5300 ca         1 GQR      -0.142300
      4 C6          35.6680    17.1040   -60.7800 ca         1 GQR      -0.092000
      5 C1          35.8670    18.1140   -59.8190 ca         1 GQR      -0.115000
      6 C8          32.9480    16.9310   -63.3280 c5         1 GQR      -0.076400
      7 C7          32.3270    17.8880   -62.2380 c5         1 GQR      -0.039100
      8 C4          33.5170    18.0760   -61.3330 ca         1 GQR      -0.079300
      9 C3          33.6960    19.0880   -60.3780 ca         1 GQR      -0.100000
     10 C2          34.8820    19.1050   -59.6170 ca         1 GQR      -0.105000
     11 H1          34.3180    14.5680   -61.2960 hn         1 GQR       0.394500
     12 H2          32.8380    15.1900   -61.2860 hn         1 GQR       0.394500
     13 H4          34.9140    15.8510   -63.2630 h1         1 GQR       0.070700
     14 H5          36.4250    16.3380   -60.9390 ha         1 GQR       0.112000
     15 H6          36.7810    18.1300   -59.2300 ha         1 GQR       0.112000
     16 H7          33.3910    17.5260   -64.1340 hc         1 GQR       0.056200
     17 H8          32.1960    16.2870   -63.7970 hc         1 GQR       0.056200
     18 H9          31.9610    18.8260   -62.6700 hc         1 GQR       0.053700
     19 H10         31.4910    17.4150   -61.7090 hc         1 GQR       0.053700
     20 H11         32.9340    19.8490   -60.2270 ha         1 GQR       0.114000
     21 H12         35.0390    19.8830   -58.8730 ha         1 GQR       0.112000
@<TRIPOS>BOND
     1     1     2 1   
     2     1    11 1   
     3     1    12 1   
     4     2     3 1   
     5     2     6 1   
     6     2    13 1   
     7     3     4 ar  
     8     3     8 ar  
     9     4     5 ar  
    10     4    14 1   
    11     5    10 ar  
    12     5    15 1   
    13     6     7 1   
    14     6    16 1   
    15     6    17 1   
    16     7     8 1   
    17     7    18 1   
    18     7    19 1   
    19     8     9 ar  
    20     9    10 ar  
    21     9    20 1   
    22    10    21 1   
@<TRIPOS>SUBSTRUCTURE
     1 GQR         1 TEMP              0 ****  ****    0 ROOT
