@<TRIPOS>MOLECULE
GQS
   22    23     1     0     0
SMALL
abcg2


@<TRIPOS>ATOM
      1 N1           2.4550    -1.4720    -0.0870 nc         1 GQS      -0.292000
      2 N3           0.0220     1.0530     0.1580 nu         1 GQS      -0.923900
      3 C4          -1.3090     0.6580     0.1030 ca         1 GQS       0.331000
      4 C5          -2.2720     1.6710     0.1800 ca         1 GQS      -0.189000
      5 C6          -3.6170     1.3580     0.1360 ca         1 GQS      -0.054000
      6 C7          -4.0460     0.0420     0.0150 ca         1 GQS      -0.181000
      7 C8          -3.0750    -0.9340    -0.0590 ca         1 GQS       0.203000
      8 C1           4.8270    -0.8280     0.0210 c3         1 GQS      -0.128400
      9 C2           3.3650    -0.5720     0.0280 cd         1 GQS       0.418700
     10 C3           1.1400     0.2900     0.0920 cd         1 GQS       0.686300
     11 C9          -1.7180    -0.6690    -0.0200 ca         1 GQS      -0.180000
     12 F1          -3.4550    -2.2170    -0.1750 f          1 GQS      -0.175000
     13 N2           1.1900    -0.9970    -0.0510 nc         1 GQS      -0.399000
     14 S1           2.7100     1.0320     0.2000 ss         1 GQS      -0.351800
     15 H2          -1.9620     2.7050     0.2760 ha         1 GQS       0.113000
     16 H3          -4.3480     2.1530     0.1970 ha         1 GQS       0.118000
     17 H4          -5.0970    -0.2110    -0.0220 ha         1 GQS       0.135000
     18 H5           5.2850    -0.5300     0.9640 hc         1 GQS       0.063033
     19 H6           5.0060    -1.8900    -0.1330 hc         1 GQS       0.063033
     20 H7           5.3200    -0.2730    -0.7770 hc         1 GQS       0.063033
     21 H9          -1.0040    -1.4760    -0.0810 ha         1 GQS       0.173000
     22 H1           0.1660     2.0460     0.2610 hn         1 GQS       0.508000
@<TRIPOS>BOND
     1     1     9 2   
     2     1    13 1   
     3     2     3 1   
     4     2    10 1   
     5     2    22 1   
     6     3     4 ar  
     7     3    11 ar  
     8     4     5 ar  
     9     4    15 1   
    10     5     6 ar  
    11     5    16 1   
    12     6     7 ar  
    13     6    17 1   
    14     7    11 ar  
    15     7    12 1   
    16     8     9 1   
    17     8    18 1   
    18     8    19 1   
    19     8    20 1   
    20     9    14 1   
    21    10    13 2   
    22    10    14 1   
    23    11    21 1   
@<TRIPOS>SUBSTRUCTURE
     1 GQS         1 TEMP              0 ****  ****    0 ROOT
