@<TRIPOS>MOLECULE
GQS
   22    23     1     0     0
SMALL
No Charge or Current Charge


@<TRIPOS>ATOM
      1 N1           2.5520    -1.3870    -0.5600 nc         1 GQS      -0.292000
      2 N3           0.0240     0.8890     0.3820 nu         1 GQS      -0.923900
      3 C4          -1.3270     0.5860     0.2140 ca         1 GQS       0.331000
      4 C5          -2.2410     1.6540     0.1930 ca         1 GQS      -0.189000
      5 C6          -3.6190     1.4200     0.0370 ca         1 GQS      -0.054000
      6 C7          -4.0880     0.1040    -0.0920 ca         1 GQS      -0.181000
      7 C8          -3.1810    -0.9640    -0.0580 ca         1 GQS       0.203000
      8 C1           4.8770    -0.7530    -0.0270 c3         1 GQS      -0.128400
      9 C2           3.3950    -0.5130    -0.0280 cd         1 GQS       0.418700
     10 C3           1.1920     0.2200     0.1850 cd         1 GQS       0.686300
     11 C9          -1.8080    -0.7290     0.0970 ca         1 GQS      -0.180000
     12 F1          -3.6340    -2.2310    -0.1700 f          1 GQS      -0.175000
     13 N2           1.2430    -0.9420    -0.4440 nc         1 GQS      -0.399000
     14 S1           2.6980     0.9310     0.6590 ss         1 GQS      -0.351800
     15 H2          -1.8860     2.6760     0.2920 ha         1 GQS       0.113000
     16 H3          -4.3170     2.2550     0.0170 ha         1 GQS       0.118000
     17 H4          -5.1510    -0.0910    -0.2120 ha         1 GQS       0.135000
     18 H5           5.4080     0.0570     0.4840 hc         1 GQS       0.063033
     19 H6           5.1190    -1.6910     0.4860 hc         1 GQS       0.063033
     20 H7           5.2620    -0.8160    -1.0510 hc         1 GQS       0.063033
     21 H9          -1.1380    -1.5780     0.1400 ha         1 GQS       0.173000
     22 H1           0.2030     1.8430     0.6820 hn         1 GQS       0.508000
@<TRIPOS>BOND
     1     1     9 2   
     2     1    13 1   
     3     2     3 1   
     4     2    10 1   
     5     2    22 1   
     6     3     4 ar  
     7     3    11 ar  
     8     4     5 ar  
     9     4    15 1   
    10     5     6 ar  
    11     5    16 1   
    12     6     7 ar  
    13     6    17 1   
    14     7    11 ar  
    15     7    12 1   
    16     8     9 1   
    17     8    18 1   
    18     8    19 1   
    19     8    20 1   
    20     9    14 1   
    21    10    13 2   
    22    10    14 1   
    23    11    21 1   
@<TRIPOS>SUBSTRUCTURE
     1 GQS         1 TEMP              0 ****  ****    0 ROOT
