@<TRIPOS>MOLECULE
GQT
   87    88     1     0     0
SMALL
abcg2


@<TRIPOS>ATOM
      1 C6           5.1900     0.1420    -0.1140 c3         1 GQT       0.092500
      2 C7           3.8470     0.6590    -0.6070 c          1 GQT       0.615100
      3 C10          0.9290     0.0830    -0.1860 c          1 GQT       0.588100
      4 C13         -2.5760     0.8930     0.1830 c          1 GQT       0.608100
      5 C15         -4.9630     0.5630     0.7160 c3         1 GQT       0.113700
      6 C17         -4.5720    -1.8080    -0.0050 ca         1 GQT      -0.081300
      7 C20         -2.8480    -3.3740    -1.5930 ca         1 GQT      -0.088300
      8 C21         -1.9020    -4.1780    -2.4460 c3         1 GQT       0.196100
      9 C24         -4.8030    -1.9710    -1.3700 ca         1 GQT      -0.107000
     10 C28         -5.7100     5.6160     2.2190 c3         1 GQT      -0.334100
     11 C18         -3.4760    -2.4550     0.5530 ca         1 GQT      -0.107000
     12 C19         -2.6250    -3.2240    -0.2290 ca         1 GQT      -0.093500
     13 N22         -2.6140    -5.0630    -3.3530 n8         1 GQT      -0.997200
     14 C23         -3.9600    -2.7460    -2.1500 ca         1 GQT      -0.093500
     15 C16         -5.4330    -0.8960     0.8200 c3         1 GQT      -0.051100
     16 C25         -5.8000     1.4800     1.6050 c3         1 GQT      -0.062400
     17 S27         -6.3040     3.9770     2.5650 s6         1 GQT       1.079000
     18 O29         -7.7270     3.9130     2.2250 o          1 GQT      -0.520500
     19 O30         -5.9140     3.6150     3.9290 o          1 GQT      -0.520500
     20 N14         -3.5630     0.6670     1.0650 ns         1 GQT      -0.499900
     21 O31         -2.7500     1.1590    -0.9920 o          1 GQT      -0.593100
     22 C12         -1.1770     0.8280     0.7960 c3         1 GQT       0.030700
     23 C32         -0.9600     2.0090     1.7380 c3         1 GQT       0.148600
     24 O33         -1.2860     3.1880     1.0470 oh         1 GQT      -0.656000
     25 N11         -0.2130     0.7780    -0.2710 ns         1 GQT      -0.478900
     26 O39          1.3170    -0.4650     0.8330 o          1 GQT      -0.618100
     27 C9           1.7020    -0.0250    -1.5030 c3         1 GQT       0.037700
     28 C40          1.1220    -1.1670    -2.3420 c3         1 GQT      -0.087400
     29 C41          1.8440    -1.4210    -3.6680 c3         1 GQT      -0.055700
     30 C42          1.1720    -2.5780    -4.4000 c3         1 GQT      -0.092100
     31 C43          1.8900    -0.1810    -4.5530 c3         1 GQT      -0.092100
     32 N8           3.0960    -0.2600    -1.2350 ns         1 GQT      -0.490900
     33 O44          3.4750     1.7990    -0.3990 o          1 GQT      -0.560100
     34 N51          6.1370     1.2520    -0.1880 n2         1 GQT      -0.405200
     35 N52          7.3050     0.9490    -0.3520 n1         1 GQT       0.232000
     36 N53          8.4040     0.7850    -0.5140 n1         1 GQT      -0.069000
     37 C54          5.0200    -0.3520     1.3340 c3         1 GQT      -0.043100
     38 C55          6.3220    -0.8490     1.8920 ca         1 GQT      -0.100300
     39 C60          7.1070    -0.0340     2.7030 ca         1 GQT      -0.107500
     40 C59          8.3440    -0.4690     3.1590 ca         1 GQT      -0.107500
     41 C58          8.8120    -1.7290     2.8100 ca         1 GQT      -0.104000
     42 C57          8.0330    -2.5520     2.0070 ca         1 GQT      -0.107500
     43 C56          6.7980    -2.1130     1.5520 ca         1 GQT      -0.107500
     44 H1           5.5240    -0.6920    -0.7410 h1         1 GQT       0.047700
     45 H2          -5.0610     0.8850    -0.3220 h1         1 GQT       0.090700
     46 H3          -1.3100    -3.4880    -3.0530 h1         1 GQT       0.033200
     47 H4          -1.1850    -4.6900    -1.7900 h1         1 GQT       0.033200
     48 H5          -5.6540    -1.4820    -1.8300 ha         1 GQT       0.109500
     49 H6          -4.3370     3.0950     1.6190 h1         1 GQT       0.103700
     50 H7          -5.6240     3.2920     0.4170 h1         1 GQT       0.103700
     51 H8          -5.9220     5.8690     1.1830 h1         1 GQT       0.104700
     52 H9          -6.2370     6.2980     2.8850 h1         1 GQT       0.104700
     53 H10         -4.6410     5.6650     2.4130 h1         1 GQT       0.104700
     54 H11         -3.2820    -2.3650     1.6160 ha         1 GQT       0.109500
     55 H12         -1.7770    -3.7160     0.2330 ha         1 GQT       0.120500
     56 H13         -1.9490    -5.5410    -3.9480 hn         1 GQT       0.396500
     57 H14         -3.0810    -5.7870    -2.8210 hn         1 GQT       0.396500
     58 H16         -4.1660    -2.8680    -3.2060 ha         1 GQT       0.120500
     59 H17         -5.4140    -1.2050     1.8700 hc         1 GQT       0.055200
     60 H18         -6.4740    -0.9450     0.4950 hc         1 GQT       0.055200
     61 H19         -6.8530     1.3480     1.3500 hc         1 GQT       0.065200
     62 H20         -5.6820     1.1780     2.6500 hc         1 GQT       0.065200
     63 H21         -3.3100     0.3720     1.9960 hn         1 GQT       0.309500
     64 H22         -1.0890    -0.0860     1.3910 h1         1 GQT       0.085700
     65 H23         -1.5810     1.8710     2.6320 h1         1 GQT       0.036700
     66 H24          0.0840     1.9970     2.0720 h1         1 GQT       0.036700
     67 H25         -1.1550     3.9330     1.6410 ho         1 GQT       0.446000
     68 H26         -0.4880     1.1840    -1.1530 hn         1 GQT       0.347500
     69 H27          1.6010     0.9140    -2.0540 h1         1 GQT       0.089700
     70 H28          1.1290    -2.0840    -1.7430 hc         1 GQT       0.056200
     71 H29          0.0700    -0.9400    -2.5440 hc         1 GQT       0.056200
     72 H30          2.8750    -1.7230    -3.4540 hc         1 GQT       0.042700
     73 H31          1.6990    -2.8160    -5.3250 hc         1 GQT       0.037033
     74 H32          1.1520    -3.4820    -3.7890 hc         1 GQT       0.037033
     75 H33          0.1410    -2.3280    -4.6630 hc         1 GQT       0.037033
     76 H34          2.4510     0.6350    -4.0950 hc         1 GQT       0.037033
     77 H35          2.3740    -0.4090    -5.5050 hc         1 GQT       0.037033
     78 H36          0.8840     0.1830    -4.7740 hc         1 GQT       0.037033
     79 H37          3.4360    -1.2070    -1.2990 hn         1 GQT       0.316500
     80 H39          4.6300     0.4680     1.9410 hc         1 GQT       0.075200
     81 H40          4.2680    -1.1440     1.3410 hc         1 GQT       0.075200
     82 H41          6.7500     0.9510     2.9780 ha         1 GQT       0.114500
     83 H42          8.9430     0.1760     3.7890 ha         1 GQT       0.114500
     84 H43          9.7760    -2.0680     3.1650 ha         1 GQT       0.115000
     85 H44          8.3860    -3.5390     1.7350 ha         1 GQT       0.114500
     86 H45          6.1980    -2.7610     0.9230 ha         1 GQT       0.114500
     87 C26         -5.3990     2.9370     1.4240 c3         1 GQT      -0.295400
@<TRIPOS>BOND
     1     1     2 1   
     2     1    34 1   
     3     1    37 1   
     4     1    44 1   
     5     2    32 1   
     6     2    33 2   
     7     3    25 1   
     8     3    26 2   
     9     3    27 1   
    10     4    20 1   
    11     4    21 2   
    12     4    22 1   
    13     5    15 1   
    14     5    16 1   
    15     5    20 1   
    16     5    45 1   
    17     6     9 ar  
    18     6    11 ar  
    19     6    15 1   
    20     7     8 1   
    21     7    12 ar  
    22     7    14 ar  
    23     8    13 1   
    24     8    46 1   
    25     8    47 1   
    26     9    14 ar  
    27     9    48 1   
    28    10    17 1   
    29    10    51 1   
    30    10    52 1   
    31    10    53 1   
    32    11    12 ar  
    33    11    54 1   
    34    12    55 1   
    35    13    56 1   
    36    13    57 1   
    37    14    58 1   
    38    15    59 1   
    39    15    60 1   
    40    16    61 1   
    41    16    62 1   
    42    16    87 1   
    43    17    18 2   
    44    17    19 2   
    45    17    87 1   
    46    20    63 1   
    47    22    23 1   
    48    22    25 1   
    49    22    64 1   
    50    23    24 1   
    51    23    65 1   
    52    23    66 1   
    53    24    67 1   
    54    25    68 1   
    55    27    28 1   
    56    27    32 1   
    57    27    69 1   
    58    28    29 1   
    59    28    70 1   
    60    28    71 1   
    61    29    30 1   
    62    29    31 1   
    63    29    72 1   
    64    30    73 1   
    65    30    74 1   
    66    30    75 1   
    67    31    76 1   
    68    31    77 1   
    69    31    78 1   
    70    32    79 1   
    71    34    35 1   
    72    35    36 3   
    73    37    38 1   
    74    37    80 1   
    75    37    81 1   
    76    38    39 ar  
    77    38    43 ar  
    78    39    40 ar  
    79    39    82 1   
    80    40    41 ar  
    81    40    83 1   
    82    41    42 ar  
    83    41    84 1   
    84    42    43 ar  
    85    42    85 1   
    86    43    86 1   
    87    49    87 1   
    88    50    87 1   
@<TRIPOS>SUBSTRUCTURE
     1 GQT         1 TEMP              0 ****  ****    0 ROOT
