@<TRIPOS>MOLECULE
GQT
   87    88     1     0     0
SMALL
No Charge or Current Charge


@<TRIPOS>ATOM
      1 C6           5.4820    -0.7030    -0.1350 c3         1 GQT       0.092500
      2 C7           4.2360     0.0060    -0.7370 c          1 GQT       0.615100
      3 C10          0.6910    -0.0710     0.3400 c          1 GQT       0.588100
      4 C13         -2.9420     0.9560     0.3090 c          1 GQT       0.608100
      5 C15         -5.4340     0.6150     0.4730 c3         1 GQT       0.113700
      6 C17         -4.7540    -1.6230    -0.5750 ca         1 GQT      -0.081300
      7 C20         -2.7310    -2.9540    -2.0400 ca         1 GQT      -0.088300
      8 C21         -1.6370    -3.6620    -2.8280 c3         1 GQT       0.196100
      9 C24         -4.6890    -1.4960    -1.9750 ca         1 GQT      -0.107000
     10 C28         -6.7320     5.4040     2.6790 c3         1 GQT      -0.334100
     11 C18         -3.8030    -2.4240     0.0880 ca         1 GQT      -0.107000
     12 C19         -2.7960    -3.0830    -0.6390 ca         1 GQT      -0.093500
     13 N22         -2.0560    -5.0130    -3.2410 n8         1 GQT      -0.997200
     14 C23         -3.6850    -2.1580    -2.7030 ca         1 GQT      -0.093500
     15 C16         -5.8150    -0.8650     0.2200 c3         1 GQT      -0.051100
     16 C25         -6.4610     1.3500     1.3660 c3         1 GQT      -0.062400
     17 S27         -7.3450     3.7240     2.5910 s6         1 GQT       1.079000
     18 O29         -8.6160     3.7470     1.8570 o          1 GQT      -0.520500
     19 O30         -7.3010     3.1580     3.9450 o          1 GQT      -0.520500
     20 N14         -4.0850     0.7030     1.0430 ns         1 GQT      -0.499900
     21 O31         -2.9860     1.3040    -0.8660 o          1 GQT      -0.593100
     22 C12         -1.6130     0.7080     1.0650 c3         1 GQT       0.030700
     23 C32         -1.3490     1.7940     2.1390 c3         1 GQT       0.148600
     24 O33         -1.1710     3.0840     1.5340 oh         1 GQT      -0.656000
     25 N11         -0.4930     0.5890     0.1000 ns         1 GQT      -0.478900
     26 O39          0.9190    -0.6100     1.4170 o          1 GQT      -0.618100
     27 C9           1.6930    -0.0830    -0.8520 c3         1 GQT       0.037700
     28 C40          1.1620    -0.9670    -2.0200 c3         1 GQT      -0.087400
     29 C41          1.9760    -0.9070    -3.3430 c3         1 GQT      -0.055700
     30 C42          1.4980    -1.9900    -4.3360 c3         1 GQT      -0.092100
     31 C43          1.9300     0.4910    -4.0070 c3         1 GQT      -0.092100
     32 N8           3.0200    -0.5570    -0.3940 ns         1 GQT      -0.490900
     33 O44          4.3110     1.0010    -1.4480 o          1 GQT      -0.560100
     34 N51          6.2700    -1.3820    -1.1890 n2         1 GQT      -0.405200
     35 N52          6.7360    -2.4990    -0.9070 n1         1 GQT       0.232000
     36 N53          7.2660    -3.4500    -0.5800 n1         1 GQT      -0.069000
     37 C54          6.3740     0.2940     0.6530 c3         1 GQT      -0.043100
     38 C55          7.4900    -0.3920     1.4360 ca         1 GQT      -0.100300
     39 C60          8.8250    -0.3170     0.9910 ca         1 GQT      -0.107500
     40 C59          9.8490    -0.9610     1.7070 ca         1 GQT      -0.107500
     41 C58          9.5440    -1.6840     2.8730 ca         1 GQT      -0.104000
     42 C57          8.2150    -1.7610     3.3220 ca         1 GQT      -0.107500
     43 C56          7.1920    -1.1170     2.6060 ca         1 GQT      -0.107500
     44 H1           5.1030    -1.4410     0.5850 h1         1 GQT       0.047700
     45 H2          -5.4330     1.1230    -0.5020 h1         1 GQT       0.090700
     46 H3          -1.3890    -3.0790    -3.7260 h1         1 GQT       0.033200
     47 H4          -0.7300    -3.7430    -2.2130 h1         1 GQT       0.033200
     48 H5          -5.4110    -0.8740    -2.5000 ha         1 GQT       0.109500
     49 H6          -5.1660     2.9720     2.0900 h1         1 GQT       0.103700
     50 H7          -6.0930     3.3800     0.6190 h1         1 GQT       0.103700
     51 H8          -6.6790     5.7940     1.6570 h1         1 GQT       0.104700
     52 H9          -7.4380     5.9810     3.2860 h1         1 GQT       0.104700
     53 H10         -5.7420     5.3740     3.1450 h1         1 GQT       0.104700
     54 H11         -3.8360    -2.5270     1.1710 ha         1 GQT       0.109500
     55 H12         -2.0650    -3.6920    -0.1120 ha         1 GQT       0.120500
     56 H13         -1.2600    -5.4870    -3.6840 hn         1 GQT       0.396500
     57 H14         -2.2370    -5.5710    -2.3990 hn         1 GQT       0.396500
     58 H16         -3.6450    -2.0490    -3.7850 ha         1 GQT       0.120500
     59 H17         -5.9830    -1.3620     1.1840 hc         1 GQT       0.055200
     60 H18         -6.7750    -0.9020    -0.3100 hc         1 GQT       0.055200
     61 H19         -7.4540     1.2610     0.9060 hc         1 GQT       0.065200
     62 H20         -6.5170     0.8460     2.3400 hc         1 GQT       0.065200
     63 H21         -3.9570     0.4180     2.0060 hn         1 GQT       0.309500
     64 H22         -1.7250    -0.2570     1.5770 h1         1 GQT       0.085700
     65 H23         -2.1910     1.8170     2.8440 h1         1 GQT       0.036700
     66 H24         -0.4530     1.5170     2.7100 h1         1 GQT       0.036700
     67 H25         -0.9360     3.7120     2.2540 ho         1 GQT       0.446000
     68 H26         -0.6100     1.0170    -0.8120 hn         1 GQT       0.347500
     69 H27          1.7730     0.9580    -1.1880 h1         1 GQT       0.089700
     70 H28          1.1270    -2.0070    -1.6690 hc         1 GQT       0.056200
     71 H29          0.1240    -0.6900    -2.2440 hc         1 GQT       0.056200
     72 H30          3.0250    -1.1320    -3.1120 hc         1 GQT       0.042700
     73 H31          2.1200    -1.9890    -5.2400 hc         1 GQT       0.037033
     74 H32          1.5620    -2.9880    -3.8860 hc         1 GQT       0.037033
     75 H33          0.4580    -1.8130    -4.6370 hc         1 GQT       0.037033
     76 H34          2.3550     1.2600    -3.3540 hc         1 GQT       0.037033
     77 H35          2.5080     0.4940    -4.9390 hc         1 GQT       0.037033
     78 H36          0.8980     0.7760    -4.2450 hc         1 GQT       0.037033
     79 H37          3.0470    -1.3530     0.2330 hn         1 GQT       0.316500
     80 H39          6.7880     1.0350    -0.0430 hc         1 GQT       0.075200
     81 H40          5.7400     0.8580     1.3480 hc         1 GQT       0.075200
     82 H41          9.0700     0.2350     0.0860 ha         1 GQT       0.114500
     83 H42         10.8770    -0.9020     1.3580 ha         1 GQT       0.114500
     84 H43         10.3370    -2.1830     3.4270 ha         1 GQT       0.115000
     85 H44          7.9790    -2.3210     4.2250 ha         1 GQT       0.114500
     86 H45          6.1650    -1.1840     2.9610 ha         1 GQT       0.114500
     87 C26         -6.1270     2.8530     1.5780 c3         1 GQT      -0.295400
@<TRIPOS>BOND
     1     1     2 1   
     2     1    34 1   
     3     1    37 1   
     4     1    44 1   
     5     2    32 1   
     6     2    33 2   
     7     3    25 1   
     8     3    26 2   
     9     3    27 1   
    10     4    20 1   
    11     4    21 2   
    12     4    22 1   
    13     5    15 1   
    14     5    16 1   
    15     5    20 1   
    16     5    45 1   
    17     6     9 ar  
    18     6    11 ar  
    19     6    15 1   
    20     7     8 1   
    21     7    12 ar  
    22     7    14 ar  
    23     8    13 1   
    24     8    46 1   
    25     8    47 1   
    26     9    14 ar  
    27     9    48 1   
    28    10    17 1   
    29    10    51 1   
    30    10    52 1   
    31    10    53 1   
    32    11    12 ar  
    33    11    54 1   
    34    12    55 1   
    35    13    56 1   
    36    13    57 1   
    37    14    58 1   
    38    15    59 1   
    39    15    60 1   
    40    16    61 1   
    41    16    62 1   
    42    16    87 1   
    43    17    18 2   
    44    17    19 2   
    45    17    87 1   
    46    20    63 1   
    47    22    23 1   
    48    22    25 1   
    49    22    64 1   
    50    23    24 1   
    51    23    65 1   
    52    23    66 1   
    53    24    67 1   
    54    25    68 1   
    55    27    28 1   
    56    27    32 1   
    57    27    69 1   
    58    28    29 1   
    59    28    70 1   
    60    28    71 1   
    61    29    30 1   
    62    29    31 1   
    63    29    72 1   
    64    30    73 1   
    65    30    74 1   
    66    30    75 1   
    67    31    76 1   
    68    31    77 1   
    69    31    78 1   
    70    32    79 1   
    71    34    35 1   
    72    35    36 3   
    73    37    38 1   
    74    37    80 1   
    75    37    81 1   
    76    38    39 ar  
    77    38    43 ar  
    78    39    40 ar  
    79    39    82 1   
    80    40    41 ar  
    81    40    83 1   
    82    41    42 ar  
    83    41    84 1   
    84    42    43 ar  
    85    42    85 1   
    86    43    86 1   
    87    49    87 1   
    88    50    87 1   
@<TRIPOS>SUBSTRUCTURE
     1 GQT         1 TEMP              0 ****  ****    0 ROOT
