@<TRIPOS>MOLECULE
GQU
   62    65     1     0     0
SMALL
bcc


@<TRIPOS>ATOM
      1 C10        -15.8750   -25.9490     0.2010 c5         1 GQU       0.027700
      2 C15        -12.1840   -28.6850     1.0310 c          1 GQU       0.562900
      3 C17        -12.0530   -26.8070     2.7380 c3         1 GQU      -0.065400
      4 C20        -11.6360   -23.0800     3.0590 c5         1 GQU       0.100000
      5 C22        -12.0210   -24.9370     4.4420 c          1 GQU       0.707500
      6 C26        -14.7650   -20.3430    -1.1900 ca         1 GQU      -0.027300
      7 C28        -14.5990   -17.9730    -0.9480 ca         1 GQU       0.167400
      8 C02        -15.8030   -23.5700     0.5790 c          1 GQU       0.679100
      9 N03        -16.2190   -24.5980    -0.1860 n          1 GQU      -0.456800
     10 C04        -16.7240   -24.5430    -1.5480 c5         1 GQU       0.111000
     11 C05        -17.3670   -25.9070    -1.7380 c5         1 GQU      -0.079700
     12 C06        -18.8140   -26.0310    -1.2030 c5         1 GQU      -0.072400
     13 C07        -18.7510   -26.9680     0.0100 c5         1 GQU      -0.080400
     14 C08        -17.5300   -27.8420    -0.2650 c5         1 GQU      -0.076400
     15 C09        -16.5260   -26.8630    -0.8660 c5         1 GQU      -0.069700
     16 C11        -14.3610   -26.1170     0.1960 c          1 GQU       0.661100
     17 O12        -13.6600   -25.5340    -0.6130 o          1 GQU      -0.604100
     18 N13        -13.8930   -26.9960     1.1030 ns         1 GQU      -0.561900
     19 C14        -12.4890   -27.2360     1.3400 c3         1 GQU      -0.020300
     20 C18        -12.4010   -25.3570     3.0300 c5         1 GQU      -0.160700
     21 C19        -11.7100   -24.3120     2.1560 c5         1 GQU      -0.088400
     22 N21        -11.5780   -23.6710     4.3800 ns         1 GQU      -0.579900
     23 C25        -14.6430   -21.7290    -0.6250 c3         1 GQU      -0.033100
     24 C27        -14.4320   -19.2360    -0.4160 ca         1 GQU      -0.188500
     25 F29        -14.2760   -16.9090    -0.2010 f          1 GQU      -0.136400
     26 C30        -15.0860   -17.7530    -2.2220 ca         1 GQU      -0.217000
     27 C31        -15.4080   -18.8750    -2.9620 ca         1 GQU       0.167400
     28 F32        -15.8800   -18.7020    -4.2040 f          1 GQU      -0.136400
     29 C33        -15.2600   -20.1600    -2.4790 ca         1 GQU      -0.188500
     30 H1         -16.2700   -26.1660     1.1970 h1         1 GQU       0.082700
     31 H2         -12.7120   -29.0700     0.1400 h4         1 GQU      -0.005800
     32 H4         -12.5240   -27.4530     3.4830 hc         1 GQU       0.070700
     33 H5         -10.9740   -26.9540     2.8280 hc         1 GQU       0.070700
     34 H6         -10.7590   -22.4630     2.8660 h1         1 GQU       0.045700
     35 H7         -12.5240   -22.4500     2.9470 h1         1 GQU       0.045700
     36 H8         -16.1870   -21.5060     0.8690 hc         1 GQU       0.067700
     37 H9         -16.7780   -22.0830    -0.6800 hc         1 GQU       0.067700
     38 H10        -15.9080   -24.3960    -2.2620 h1         1 GQU       0.054700
     39 H11        -17.4390   -23.7330    -1.6800 h1         1 GQU       0.054700
     40 H12        -17.3250   -26.1930    -2.7890 hc         1 GQU       0.068700
     41 H13        -19.2460   -25.0610    -0.9520 hc         1 GQU       0.047200
     42 H14        -19.4500   -26.4660    -1.9770 hc         1 GQU       0.047200
     43 H15        -18.6040   -26.3950     0.9300 hc         1 GQU       0.049700
     44 H16        -19.6660   -27.5470     0.1410 hc         1 GQU       0.049700
     45 H17        -17.7730   -28.6100    -1.0050 hc         1 GQU       0.050200
     46 H18        -17.1510   -28.3550     0.6210 hc         1 GQU       0.050200
     47 H19        -15.7590   -27.3720    -1.4540 hc         1 GQU       0.073700
     48 H20        -14.5420   -27.3730     1.7780 hn         1 GQU       0.318500
     49 H21        -11.9400   -26.6620     0.5850 h1         1 GQU       0.100700
     50 H23        -13.4870   -25.2220     2.9580 hc         1 GQU       0.092700
     51 H24        -12.2420   -24.1050     1.2300 hc         1 GQU       0.061200
     52 H25        -10.7020   -24.6490     1.9020 hc         1 GQU       0.061200
     53 H26        -11.3830   -23.1310     5.2090 hn         1 GQU       0.325500
     54 H27        -14.3710   -22.4270    -1.4200 hc         1 GQU       0.066700
     55 H28        -13.8410   -21.7640     0.1150 hc         1 GQU       0.066700
     56 H29        -14.0440   -19.3570     0.5880 ha         1 GQU       0.154000
     57 H30        -15.2080   -16.7550    -2.6200 ha         1 GQU       0.170000
     58 H31        -15.5220   -21.0080    -3.0990 ha         1 GQU       0.154000
     59 O16        -11.4350   -29.3780     1.6680 o          1 GQU      -0.498100
     60 C24        -15.9590   -22.1710     0.0340 c3         1 GQU      -0.151400
     61 O01        -15.2710   -23.7620     1.6660 o          1 GQU      -0.617100
     62 O23        -12.1190   -25.6180     5.4500 o          1 GQU      -0.634500
@<TRIPOS>BOND
     1     1     9 1   
     2     1    15 1   
     3     1    16 1   
     4     1    30 1   
     5     2    19 1   
     6     2    31 1   
     7     2    59 2   
     8     3    19 1   
     9     3    20 1   
    10     3    32 1   
    11     3    33 1   
    12     4    21 1   
    13     4    22 1   
    14     4    34 1   
    15     4    35 1   
    16     5    20 1   
    17     5    22 1   
    18     5    62 2   
    19     6    23 1   
    20     6    24 ar  
    21     6    29 ar  
    22     7    24 ar  
    23     7    25 1   
    24     7    26 ar  
    25     8     9 1   
    26     8    60 1   
    27     8    61 2   
    28     9    10 1   
    29    10    11 1   
    30    10    38 1   
    31    10    39 1   
    32    11    12 1   
    33    11    15 1   
    34    11    40 1   
    35    12    13 1   
    36    12    41 1   
    37    12    42 1   
    38    13    14 1   
    39    13    43 1   
    40    13    44 1   
    41    14    15 1   
    42    14    45 1   
    43    14    46 1   
    44    15    47 1   
    45    16    17 2   
    46    16    18 1   
    47    18    19 1   
    48    18    48 1   
    49    19    49 1   
    50    20    21 1   
    51    20    50 1   
    52    21    51 1   
    53    21    52 1   
    54    22    53 1   
    55    23    54 1   
    56    23    55 1   
    57    23    60 1   
    58    24    56 1   
    59    26    27 ar  
    60    26    57 1   
    61    27    28 1   
    62    27    29 ar  
    63    29    58 1   
    64    36    60 1   
    65    37    60 1   
@<TRIPOS>SUBSTRUCTURE
     1 GQU         1 TEMP              0 ****  ****    0 ROOT
