@<TRIPOS>MOLECULE
GQU
   62    65     1     0     0
SMALL
No Charge or Current Charge


@<TRIPOS>ATOM
      1 C10        -15.7270   -25.8820     0.2680 c5         1 GQU       0.027700
      2 C15        -12.3460   -29.1090     1.2320 c          1 GQU       0.562900
      3 C17        -12.1580   -27.1610     2.9320 c3         1 GQU      -0.065400
      4 C20        -11.1420   -23.4780     3.2550 c5         1 GQU       0.100000
      5 C22        -11.9150   -25.2420     4.6560 c          1 GQU       0.565000
      6 C26        -15.1880   -20.0470    -1.4100 ca         1 GQU      -0.027300
      7 C28        -15.1610   -17.6160    -1.2290 ca         1 GQU       0.202500
      8 C02        -15.7090   -23.3780     0.5470 c          1 GQU       0.612100
      9 N03        -16.1210   -24.5180    -0.1810 n          1 GQU      -0.389800
     10 C04        -16.4500   -24.4920    -1.6190 c5         1 GQU       0.111000
     11 C05        -17.0600   -25.9040    -1.8660 c5         1 GQU      -0.079700
     12 C06        -18.5880   -25.8760    -1.4920 c5         1 GQU      -0.072400
     13 C07        -18.6590   -26.4640    -0.0590 c5         1 GQU      -0.080400
     14 C08        -17.5790   -27.5740    -0.1440 c5         1 GQU      -0.076400
     15 C09        -16.3790   -26.8300    -0.8090 c5         1 GQU      -0.069700
     16 C11        -14.1830   -26.1210     0.2610 c          1 GQU       0.594100
     17 O12        -13.3380   -25.5060    -0.3780 o          1 GQU      -0.604100
     18 N13        -13.8770   -27.1630     1.1170 ns         1 GQU      -0.494900
     19 C14        -12.5030   -27.5860     1.4780 c3         1 GQU      -0.020300
     20 C18        -12.2080   -25.6300     3.2010 c5         1 GQU      -0.160700
     21 C19        -11.1710   -24.7820     2.4120 c5         1 GQU      -0.088400
     22 N21        -11.2850   -24.0290     4.6010 ns         1 GQU      -0.512900
     23 C25        -14.8690   -21.4190    -0.8350 c3         1 GQU      -0.033100
     24 C27        -14.8570   -18.8790    -0.6960 ca         1 GQU      -0.170500
     25 F29        -14.8390   -16.5020    -0.5370 f          1 GQU      -0.171500
     26 C30        -15.7970   -17.5030    -2.4720 ca         1 GQU      -0.199000
     27 C31        -16.1300   -18.6640    -3.1830 ca         1 GQU       0.202500
     28 F32        -16.7460   -18.5620    -4.3800 f          1 GQU      -0.171500
     29 C33        -15.8300   -19.9310    -2.6580 ca         1 GQU      -0.170500
     30 H1         -16.0980   -26.0730     1.2840 h1         1 GQU       0.082700
     31 H2         -12.2660   -29.4050     0.1630 h4         1 GQU      -0.005800
     32 H4         -12.8510   -27.6690     3.6160 hc         1 GQU       0.070700
     33 H5         -11.1580   -27.5390     3.1810 hc         1 GQU       0.070700
     34 H6         -10.2070   -22.9190     3.1190 h1         1 GQU       0.045700
     35 H7         -11.9830   -22.8170     3.0030 h1         1 GQU       0.045700
     36 H8         -16.2090   -21.3000     0.8550 hc         1 GQU       0.067700
     37 H9         -16.9250   -22.0040    -0.6280 hc         1 GQU       0.067700
     38 H10        -15.5340   -24.3570    -2.2100 h1         1 GQU       0.054700
     39 H11        -17.1490   -23.6950    -1.8980 h1         1 GQU       0.054700
     40 H12        -16.9060   -26.2400    -2.8980 hc         1 GQU       0.068700
     41 H13        -19.0400   -24.8790    -1.5530 hc         1 GQU       0.047200
     42 H14        -19.1540   -26.5100    -2.1860 hc         1 GQU       0.047200
     43 H15        -18.4350   -25.7130     0.7080 hc         1 GQU       0.049700
     44 H16        -19.6510   -26.8680     0.1730 hc         1 GQU       0.049700
     45 H17        -17.9200   -28.4060    -0.7720 hc         1 GQU       0.050200
     46 H18        -17.3330   -28.0000     0.8360 hc         1 GQU       0.050200
     47 H19        -15.6580   -27.5260    -1.2560 hc         1 GQU       0.073700
     48 H20        -14.6580   -27.6090     1.5870 hn         1 GQU       0.318500
     49 H21        -11.7890   -27.1060     0.7960 h1         1 GQU       0.100700
     50 H23        -13.2070   -25.2440     2.9720 hc         1 GQU       0.092700
     51 H24        -11.4560   -24.6000     1.3700 hc         1 GQU       0.061200
     52 H25        -10.1850   -25.2610     2.4060 hc         1 GQU       0.061200
     53 H26        -10.9220   -23.6240     5.4560 hn         1 GQU       0.325500
     54 H27        -14.6350   -22.1190    -1.6460 hc         1 GQU       0.066700
     55 H28        -13.9660   -21.3670    -0.2120 hc         1 GQU       0.066700
     56 H29        -14.3660   -18.9470     0.2710 ha         1 GQU       0.136000
     57 H30        -16.0310   -16.5250    -2.8810 ha         1 GQU       0.152000
     58 H31        -16.0990   -20.8200    -3.2230 ha         1 GQU       0.136000
     59 O16        -12.3090   -29.9540     2.1210 o          1 GQU      -0.498100
     60 C24        -16.0370   -21.9760     0.0100 c3         1 GQU      -0.151400
     61 O01        -15.1310   -23.5000     1.6200 o          1 GQU      -0.617100
     62 O23        -11.9770   -25.9180     5.6710 o          1 GQU      -0.559000
@<TRIPOS>BOND
     1     1     9 1   
     2     1    15 1   
     3     1    16 1   
     4     1    30 1   
     5     2    19 1   
     6     2    31 1   
     7     2    59 2   
     8     3    19 1   
     9     3    20 1   
    10     3    32 1   
    11     3    33 1   
    12     4    21 1   
    13     4    22 1   
    14     4    34 1   
    15     4    35 1   
    16     5    20 1   
    17     5    22 1   
    18     5    62 2   
    19     6    23 1   
    20     6    24 ar  
    21     6    29 ar  
    22     7    24 ar  
    23     7    25 1   
    24     7    26 ar  
    25     8     9 1   
    26     8    60 1   
    27     8    61 2   
    28     9    10 1   
    29    10    11 1   
    30    10    38 1   
    31    10    39 1   
    32    11    12 1   
    33    11    15 1   
    34    11    40 1   
    35    12    13 1   
    36    12    41 1   
    37    12    42 1   
    38    13    14 1   
    39    13    43 1   
    40    13    44 1   
    41    14    15 1   
    42    14    45 1   
    43    14    46 1   
    44    15    47 1   
    45    16    17 2   
    46    16    18 1   
    47    18    19 1   
    48    18    48 1   
    49    19    49 1   
    50    20    21 1   
    51    20    50 1   
    52    21    51 1   
    53    21    52 1   
    54    22    53 1   
    55    23    54 1   
    56    23    55 1   
    57    23    60 1   
    58    24    56 1   
    59    26    27 ar  
    60    26    57 1   
    61    27    28 1   
    62    27    29 ar  
    63    29    58 1   
    64    36    60 1   
    65    37    60 1   
@<TRIPOS>SUBSTRUCTURE
     1 GQU         1 TEMP              0 ****  ****    0 ROOT
