@<TRIPOS>MOLECULE
GQV
   16    16     1     0     0
SMALL
No Charge or Current Charge


@<TRIPOS>ATOM
      1 C4          -1.2350    -0.0600    -0.0380 cc         1 GQV       0.015900
      2 C5           0.0740    -0.8030    -0.0550 c          1 GQV       0.549200
      3 O1           0.1650    -2.0280    -0.1010 o          1 GQV      -0.536000
      4 N            1.2200     0.0270    -0.0130 n          1 GQV      -0.269000
      5 C            2.5490    -0.6270    -0.0270 c3         1 GQV       0.080300
      6 O           -2.3500    -0.8350    -0.0770 oh         1 GQV      -0.499100
      7 C3          -1.3130     1.3160     0.0140 cd         1 GQV      -0.225000
      8 C2          -0.0930     2.0760     0.0540 cd         1 GQV      -0.251000
      9 C1           1.1210     1.4210     0.0390 cc         1 GQV      -0.071400
     10 H1           2.6590    -1.2210    -0.9430 h1         1 GQV       0.054033
     11 H2           3.3530     0.1190     0.0070 h1         1 GQV       0.054033
     12 H3           2.6450    -1.2880     0.8440 h1         1 GQV       0.054033
     13 H4          -3.1280    -0.2380    -0.0610 ho         1 GQV       0.460000
     14 H5          -2.2750     1.8250     0.0260 ha         1 GQV       0.186000
     15 H6          -0.1220     3.1640     0.0950 ha         1 GQV       0.198000
     16 H7           2.0880     1.9160     0.0660 h4         1 GQV       0.201000
@<TRIPOS>BOND
     1     1     2 1   
     2     1     6 1   
     3     1     7 2   
     4     2     3 2   
     5     2     4 1   
     6     4     5 1   
     7     4     9 1   
     8     5    10 1   
     9     5    11 1   
    10     5    12 1   
    11     6    13 1   
    12     7     8 1   
    13     7    14 1   
    14     8     9 2   
    15     8    15 1   
    16     9    16 1   
@<TRIPOS>SUBSTRUCTURE
     1 GQV         1 TEMP              0 ****  ****    0 ROOT
