@<TRIPOS>MOLECULE
GQV
   16    16     1     0     0
SMALL
abcg2


@<TRIPOS>ATOM
      1 C4          -1.2030    -0.0450    -0.0370 cc         1 GQV       0.015900
      2 C5           0.0660    -0.7520    -0.0520 c          1 GQV       0.549200
      3 O1           0.1590    -1.9760    -0.0980 o          1 GQV      -0.536000
      4 N            1.1830     0.0510    -0.0120 n          1 GQV      -0.269000
      5 C            2.4750    -0.6220    -0.0280 c3         1 GQV       0.080300
      6 O           -2.2680    -0.8640    -0.0790 oh         1 GQV      -0.499100
      7 C3          -1.2550     1.3120     0.0150 cd         1 GQV      -0.225000
      8 C2          -0.0560     2.0650     0.0540 cd         1 GQV      -0.251000
      9 C1           1.1280     1.4130     0.0390 cc         1 GQV      -0.071400
     10 H1           2.5880    -1.2130    -0.9340 h1         1 GQV       0.054033
     11 H2           3.2620     0.1250     0.0060 h1         1 GQV       0.054033
     12 H3           2.5760    -1.2800     0.8330 h1         1 GQV       0.054033
     13 H4          -3.0820    -0.3480    -0.0650 ho         1 GQV       0.460000
     14 H5          -2.2100     1.8250     0.0270 ha         1 GQV       0.186000
     15 H6          -0.0800     3.1430     0.0940 ha         1 GQV       0.198000
     16 H7           2.0770     1.9280     0.0670 h4         1 GQV       0.201000
@<TRIPOS>BOND
     1     1     2 1   
     2     1     6 1   
     3     1     7 2   
     4     2     3 2   
     5     2     4 1   
     6     4     5 1   
     7     4     9 1   
     8     5    10 1   
     9     5    11 1   
    10     5    12 1   
    11     6    13 1   
    12     7     8 1   
    13     7    14 1   
    14     8     9 2   
    15     8    15 1   
    16     9    16 1   
@<TRIPOS>SUBSTRUCTURE
     1 GQV         1 TEMP              0 ****  ****    0 ROOT
