@<TRIPOS>MOLECULE
GQW
   34    36     1     0     0
SMALL
abcg2


@<TRIPOS>ATOM
      1 C1          -3.3960    -0.3300     0.2310 ca         1 GQW      -0.135600
      2 C2          -4.0830     0.7270    -0.3600 ca         1 GQW      -0.097000
      3 C3          -3.3990     1.8670    -0.7420 ca         1 GQW      -0.092000
      4 C4          -2.0300     1.9430    -0.5520 ca         1 GQW       0.093000
      5 C5          -1.3220     0.8990     0.0490 ca         1 GQW      -0.025000
      6 C6           0.9650     0.0390     0.0610 c          1 GQW       0.622700
      7 C7           2.3820     0.3750     0.3480 ca         1 GQW      -0.130600
      8 N1           0.0520     1.0260     0.2670 ns         1 GQW      -0.148000
      9 C8           2.7870     1.5020     1.0490 ca         1 GQW      -0.067000
     10 N           -5.2100    -1.8690     0.0280 ns         1 GQW      -0.376400
     11 C           -4.0760    -1.5760     0.6990 c          1 GQW       0.610700
     12 O           -3.6440    -2.2460     1.6190 o          1 GQW      -0.552100
     13 C10          5.1110     0.9140     0.8060 ca         1 GQW      -0.042000
     14 C11          4.7390    -0.2400     0.1120 ca         1 GQW      -0.084800
     15 C12          5.5830    -1.2560    -0.4460 cc         1 GQW      -0.179200
     16 C13          4.8730    -2.2360    -1.0410 cd         1 GQW      -0.182400
     17 C14          3.3730    -0.5080    -0.1000 ca         1 GQW      -0.136000
     18 C15         -2.0290    -0.2270     0.4530 ca         1 GQW      -0.054000
     19 C9           4.1370     1.7710     1.2760 ca         1 GQW      -0.132000
     20 O1          -5.8290    -3.0570     0.2740 oh         1 GQW      -0.429100
     21 O2           0.6630    -1.0670    -0.3530 o          1 GQW      -0.574100
     22 S            3.1600    -1.9990    -0.9580 ss         1 GQW       0.169400
     23 CL          -1.1880     3.3630    -1.0650 cl         1 GQW      -0.194000
     24 H1          -5.1540     0.6930    -0.5050 ha         1 GQW       0.121000
     25 H2          -3.9280     2.6960    -1.1910 ha         1 GQW       0.134000
     26 H3           0.3920     1.9590     0.4350 hn         1 GQW       0.167000
     27 H4           2.0610     2.1940     1.4580 ha         1 GQW       0.109000
     28 H5          -5.3940    -1.4950    -0.8920 hn         1 GQW       0.334500
     29 H6           6.1590     1.1290     0.9750 ha         1 GQW       0.120000
     30 H7           6.6620    -1.2340    -0.3900 ha         1 GQW       0.203000
     31 H8           5.2620    -3.1170    -1.5300 h4         1 GQW       0.217000
     32 H9          -1.5120    -1.0310     0.9550 ha         1 GQW       0.162000
     33 H10          4.4150     2.6590     1.8260 ha         1 GQW       0.119000
     34 H11         -6.5820    -2.8520     0.8430 ho         1 GQW       0.449000
@<TRIPOS>BOND
     1     1     2 ar  
     2     1    11 1   
     3     1    18 ar  
     4     2     3 ar  
     5     2    24 1   
     6     3     4 ar  
     7     3    25 1   
     8     4     5 ar  
     9     4    23 1   
    10     5     8 1   
    11     5    18 ar  
    12     6     7 1   
    13     6     8 1   
    14     6    21 2   
    15     7     9 ar  
    16     7    17 ar  
    17     8    26 1   
    18     9    19 ar  
    19     9    27 1   
    20    10    11 1   
    21    10    20 1   
    22    10    28 1   
    23    11    12 2   
    24    13    14 ar  
    25    13    19 ar  
    26    13    29 1   
    27    14    15 1   
    28    14    17 ar  
    29    15    16 2   
    30    15    30 1   
    31    16    22 1   
    32    16    31 1   
    33    17    22 1   
    34    18    32 1   
    35    19    33 1   
    36    20    34 1   
@<TRIPOS>SUBSTRUCTURE
     1 GQW         1 TEMP              0 ****  ****    0 ROOT
