@<TRIPOS>MOLECULE
GQW
   34    36     1     0     0
SMALL
No Charge or Current Charge


@<TRIPOS>ATOM
      1 C1          -3.5070    -0.4580     0.1120 ca         1 GQW      -0.135600
      2 C2          -4.1660     0.7910     0.0220 ca         1 GQW      -0.097000
      3 C3          -3.4260     1.9820    -0.0300 ca         1 GQW      -0.092000
      4 C4          -2.0250     1.9490     0.0040 ca         1 GQW       0.093000
      5 C5          -1.3390     0.7200     0.0860 ca         1 GQW      -0.025000
      6 C6           1.0580    -0.2380     0.0340 c          1 GQW       0.622700
      7 C7           2.5040     0.2470     0.1640 ca         1 GQW      -0.130600
      8 N1           0.0870     0.7530     0.1220 ns         1 GQW      -0.148000
      9 C8           2.7880     1.6070     0.4780 ca         1 GQW      -0.067000
     10 N           -5.6560    -1.6950     0.0760 ns         1 GQW      -0.376400
     11 C           -4.2690    -1.7710     0.1790 c          1 GQW       0.610700
     12 O           -3.6980    -2.8450     0.3300 o          1 GQW      -0.552100
     13 C10          5.1920     1.1900     0.4170 ca         1 GQW      -0.042000
     14 C11          4.9230    -0.1480     0.1090 ca         1 GQW      -0.084800
     15 C12          5.9300    -1.1590    -0.1090 cc         1 GQW      -0.179200
     16 C13          5.3680    -2.3890    -0.4010 cd         1 GQW      -0.182400
     17 C14          3.6230    -0.6170    -0.0150 ca         1 GQW      -0.136000
     18 C15         -2.0910    -0.4770     0.1470 ca         1 GQW      -0.054000
     19 C9           4.1130     2.0680     0.6010 ca         1 GQW      -0.132000
     20 O1          -6.4570    -2.8880    -0.1200 oh         1 GQW      -0.429100
     21 O2           0.7730    -1.4170    -0.1370 o          1 GQW      -0.574100
     22 S            3.5850    -2.3600    -0.4210 ss         1 GQW       0.169400
     23 Cl          -1.1380     3.4730    -0.0610 cl         1 GQW      -0.194000
     24 H1          -5.2510     0.8620     0.0000 ha         1 GQW       0.121000
     25 H2          -3.9410     2.9380    -0.0940 ha         1 GQW       0.134000
     26 H3           0.4610     1.6850     0.2250 hn         1 GQW       0.167000
     27 H4           1.9930     2.3300     0.6380 ha         1 GQW       0.109000
     28 H5          -6.0860    -0.8180    -0.2050 hn         1 GQW       0.334500
     29 H6           6.2160     1.5450     0.5110 ha         1 GQW       0.120000
     30 H7           7.0040    -0.9900    -0.0550 ha         1 GQW       0.203000
     31 H8           5.8830    -3.3210    -0.6090 h4         1 GQW       0.217000
     32 H9          -1.5900    -1.4360     0.2310 ha         1 GQW       0.162000
     33 H10          4.3030     3.1120     0.8430 ha         1 GQW       0.119000
     34 H11         -7.1620    -2.8100     0.5660 ho         1 GQW       0.449000
@<TRIPOS>BOND
     1     1     2 ar  
     2     1    11 1   
     3     1    18 ar  
     4     2     3 ar  
     5     2    24 1   
     6     3     4 ar  
     7     3    25 1   
     8     4     5 ar  
     9     4    23 1   
    10     5     8 1   
    11     5    18 ar  
    12     6     7 1   
    13     6     8 1   
    14     6    21 2   
    15     7     9 ar  
    16     7    17 ar  
    17     8    26 1   
    18     9    19 ar  
    19     9    27 1   
    20    10    11 1   
    21    10    20 1   
    22    10    28 1   
    23    11    12 2   
    24    13    14 ar  
    25    13    19 ar  
    26    13    29 1   
    27    14    15 1   
    28    14    17 ar  
    29    15    16 2   
    30    15    30 1   
    31    16    22 1   
    32    16    31 1   
    33    17    22 1   
    34    18    32 1   
    35    19    33 1   
    36    20    34 1   
@<TRIPOS>SUBSTRUCTURE
     1 GQW         1 TEMP              0 ****  ****    0 ROOT
