@<TRIPOS>MOLECULE
GQX
   35    37     1     0     0
SMALL
No Charge or Current Charge


@<TRIPOS>ATOM
      1 C10        -41.0030    43.3870    -3.2310 c2         1 GQX       0.914100
      2 C02        -35.2990    38.5230    -4.0550 cc         1 GQX      -0.067300
      3 C04        -37.2100    39.7270    -3.6400 cc         1 GQX      -0.212500
      4 C05        -38.5490    40.0160    -3.1830 cc         1 GQX       0.412500
      5 C06        -39.2820    39.0540    -2.5310 cd         1 GQX      -0.322000
      6 C08        -40.3720    41.1990    -2.8560 cd         1 GQX       0.736400
      7 C14        -36.3190    40.5440    -4.2940 cd         1 GQX      -0.061300
      8 C15        -36.4460    42.0040    -4.6860 c6         1 GQX      -0.001100
      9 C16        -35.0460    42.6410    -4.8990 c6         1 GQX      -0.067400
     10 C17        -34.1370    41.7630    -5.8030 c6         1 GQX      -0.175400
     11 C18        -33.9610    40.3280    -5.2740 c          1 GQX       0.618700
     12 C20        -35.1530    39.7940    -4.5640 cd         1 GQX      -0.273600
     13 N03        -36.5760    38.4890    -3.4880 na         1 GQX      -0.095000
     14 N09        -41.2850    42.2220    -2.8680 nf         1 GQX      -0.851700
     15 N11        -42.0650    44.0450    -3.4230 nv         1 GQX      -1.070700
     16 N12        -40.4300    43.5820    -4.3710 nv         1 GQX      -1.070700
     17 N13        -39.1600    41.2260    -3.3760 nc         1 GQX      -0.792000
     18 O19        -32.9110    39.7140    -5.4220 o          1 GQX      -0.557100
     19 S07        -40.8640    39.6810    -2.1060 ss         1 GQX      -0.030400
     20 H1         -33.4320    37.5870    -3.5260 hc         1 GQX       0.056033
     21 H2         -34.8030    36.4680    -3.5980 hc         1 GQX       0.056033
     22 H3         -34.0840    37.0800    -5.0960 hc         1 GQX       0.056033
     23 H4         -39.0050    38.0410    -2.2780 h4         1 GQX       0.150000
     24 H5         -36.9710    42.5790    -3.9120 hc         1 GQX       0.050200
     25 H6         -37.0410    42.0950    -5.6050 hc         1 GQX       0.050200
     26 H7         -34.5570    42.7810    -3.9250 hc         1 GQX       0.043200
     27 H8         -35.1570    43.6430    -5.3360 hc         1 GQX       0.043200
     28 H9         -34.6570    41.6660    -6.7650 hc         1 GQX       0.063200
     29 H10        -33.1570    42.2160    -6.0010 hc         1 GQX       0.063200
     30 H11        -36.9820    37.6770    -3.0370 hn         1 GQX       0.347000
     31 H13        -42.7830    43.4070    -3.1220 hn         1 GQX       0.505500
     32 H14        -42.0910    44.1770    -4.4190 hn         1 GQX       0.505500
     33 H15        -39.8930    44.4370    -4.3240 hn         1 GQX       0.505500
     34 H12        -39.8130    42.7850    -4.5040 hn         1 GQX       0.505500
     35 C01        -34.3540    37.3500    -4.0690 c3         1 GQX      -0.032800
@<TRIPOS>BOND
     1     1    14 2   
     2     1    15 1   
     3     1    16 1   
     4     2    12 2   
     5     2    13 1   
     6     2    35 1   
     7     3     4 1   
     8     3     7 2   
     9     3    13 1   
    10     4     5 2   
    11     4    17 1   
    12     5    19 1   
    13     5    23 1   
    14     6    14 1   
    15     6    17 2   
    16     6    19 1   
    17     7     8 1   
    18     7    12 1   
    19     8     9 1   
    20     8    24 1   
    21     8    25 1   
    22     9    10 1   
    23     9    26 1   
    24     9    27 1   
    25    10    11 1   
    26    10    28 1   
    27    10    29 1   
    28    11    12 1   
    29    11    18 2   
    30    13    30 1   
    31    15    31 1   
    32    15    32 1   
    33    16    33 1   
    34    16    34 1   
    35    20    35 1   
    36    21    35 1   
    37    22    35 1   
@<TRIPOS>SUBSTRUCTURE
     1 GQX         1 TEMP              0 ****  ****    0 ROOT
