@<TRIPOS>MOLECULE
GQX
   35    37     1     0     0
SMALL
abcg2


@<TRIPOS>ATOM
      1 C10        -41.1840    43.0960    -3.6930 c2         1 GQX       0.914100
      2 C02        -35.3430    38.5190    -4.1590 cc         1 GQX      -0.067300
      3 C04        -37.1690    39.7200    -3.6100 cc         1 GQX      -0.212500
      4 C05        -38.4760    39.9400    -3.0240 cc         1 GQX       0.412500
      5 C06        -39.0950    39.1310    -2.1200 cd         1 GQX      -0.322000
      6 C08        -40.3420    41.1310    -2.7930 cd         1 GQX       0.736400
      7 C14        -36.3090    40.5810    -4.2460 cd         1 GQX      -0.061300
      8 C15        -36.4160    42.0410    -4.5430 c6         1 GQX      -0.001100
      9 C16        -35.0200    42.6360    -4.7150 c6         1 GQX      -0.067400
     10 C17        -34.1770    41.8320    -5.7030 c6         1 GQX      -0.175400
     11 C18        -34.0160    40.3800    -5.3010 c          1 GQX       0.618700
     12 C20        -35.1510    39.8250    -4.5960 cd         1 GQX      -0.273600
     13 N03        -36.5510    38.4860    -3.5740 na         1 GQX      -0.095000
     14 N09        -41.3070    42.0540    -2.8910 nf         1 GQX      -0.851700
     15 N11        -42.1910    43.9900    -3.6830 nv         1 GQX      -1.070700
     16 N12        -40.1400    43.3430    -4.4880 nv         1 GQX      -1.070700
     17 N13        -39.1810    41.0550    -3.3930 nc         1 GQX      -0.792000
     18 O19        -33.0140    39.7390    -5.5810 o          1 GQX      -0.557100
     19 S07        -40.6360    39.7830    -1.7120 ss         1 GQX      -0.030400
     20 H1         -33.5250    37.4610    -3.7810 hc         1 GQX       0.056033
     21 H2         -34.9660    36.4450    -3.8200 hc         1 GQX       0.056033
     22 H3         -34.2770    37.0750    -5.3170 hc         1 GQX       0.056033
     23 H4         -38.7320    38.2220    -1.6650 h4         1 GQX       0.150000
     24 H5         -36.9580    42.5650    -3.7550 hc         1 GQX       0.050200
     25 H6         -36.9920    42.1950    -5.4630 hc         1 GQX       0.050200
     26 H7         -34.5130    42.6620    -3.7460 hc         1 GQX       0.043200
     27 H8         -35.0950    43.6690    -5.0560 hc         1 GQX       0.043200
     28 H9         -34.6630    41.8420    -6.6860 hc         1 GQX       0.063200
     29 H10        -33.1900    42.2790    -5.8390 hc         1 GQX       0.063200
     30 H11        -36.9650    37.6470    -3.1970 hn         1 GQX       0.347000
     31 H13        -43.0440    43.7190    -3.2260 hn         1 GQX       0.505500
     32 H14        -42.2760    44.6760    -4.4140 hn         1 GQX       0.505500
     33 H15        -40.0930    44.1730    -5.0550 hn         1 GQX       0.505500
     34 H12        -39.3580    42.7030    -4.4680 hn         1 GQX       0.505500
     35 C01        -34.4850    37.3110    -4.2740 c3         1 GQX      -0.032800
@<TRIPOS>BOND
     1     1    14 2   
     2     1    15 1   
     3     1    16 1   
     4     2    12 2   
     5     2    13 1   
     6     2    35 1   
     7     3     4 1   
     8     3     7 2   
     9     3    13 1   
    10     4     5 2   
    11     4    17 1   
    12     5    19 1   
    13     5    23 1   
    14     6    14 1   
    15     6    17 2   
    16     6    19 1   
    17     7     8 1   
    18     7    12 1   
    19     8     9 1   
    20     8    24 1   
    21     8    25 1   
    22     9    10 1   
    23     9    26 1   
    24     9    27 1   
    25    10    11 1   
    26    10    28 1   
    27    10    29 1   
    28    11    12 1   
    29    11    18 2   
    30    13    30 1   
    31    15    31 1   
    32    15    32 1   
    33    16    33 1   
    34    16    34 1   
    35    20    35 1   
    36    21    35 1   
    37    22    35 1   
@<TRIPOS>SUBSTRUCTURE
     1 GQX         1 TEMP              0 ****  ****    0 ROOT
