@<TRIPOS>MOLECULE
GQY
   31    32     1     0     0
SMALL
bcc


@<TRIPOS>ATOM
      1 N1           4.0150    -1.2460    -0.3350 nv         1 GQY      -0.792200
      2 C4          -0.1130    -0.4070     0.0330 ca         1 GQY       0.133600
      3 C5           0.3320    -1.7070    -0.1630 ca         1 GQY      -0.176000
      4 C6           1.6970    -1.9820    -0.2480 ca         1 GQY      -0.144000
      5 C7           2.6570    -0.9860    -0.1750 ca         1 GQY       0.087600
      6 C8          -2.4110    -1.1670     0.2820 c6         1 GQY       0.151300
      7 C10         -3.3450     1.4160    -0.2840 c6         1 GQY       0.125900
      8 C1           2.8120     2.6130     0.3160 c3         1 GQY       0.127700
      9 O1           3.1760     1.2710     0.0770 os         1 GQY      -0.325900
     10 C2           2.2010     0.3360     0.0090 ca         1 GQY       0.110100
     11 C3           0.8510     0.6100     0.1280 ca         1 GQY      -0.209000
     12 N2          -1.4710    -0.0690     0.1760 nh         1 GQY      -0.634000
     13 C9          -3.7710    -0.6380     0.7010 c6         1 GQY       0.125900
     14 O2          -4.2530     0.3400    -0.1920 os         1 GQY      -0.400600
     15 C11         -1.9740     0.9520    -0.7340 c6         1 GQY       0.151300
     16 H1           4.2610    -2.2040    -0.1390 hn         1 GQY       0.381300
     17 H2           4.6210    -0.6250     0.1790 hn         1 GQY       0.381300
     18 H3          -0.3610    -2.5310    -0.2530 ha         1 GQY       0.132000
     19 H4           2.0160    -3.0080    -0.3910 ha         1 GQY       0.130000
     20 H5          -2.5050    -1.7240    -0.6640 h1         1 GQY       0.045700
     21 H6          -2.0710    -1.8720     1.0430 h1         1 GQY       0.045700
     22 H7          -3.7520     2.1280    -1.0040 h1         1 GQY       0.051700
     23 H8          -3.2550     1.9260     0.6850 h1         1 GQY       0.051700
     24 H9           2.1670     3.0090    -0.4740 h1         1 GQY       0.039033
     25 H10          2.3040     2.7350     1.2770 h1         1 GQY       0.039033
     26 H11          3.7350     3.1880     0.3330 h1         1 GQY       0.039033
     27 H12          0.5220     1.6230     0.3190 ha         1 GQY       0.138000
     28 H13         -4.4950    -1.4540     0.7170 h1         1 GQY       0.051700
     29 H14         -3.6990    -0.2280     1.7180 h1         1 GQY       0.051700
     30 H15         -2.0300     0.5700    -1.7650 h1         1 GQY       0.045700
     31 H16         -1.3070     1.8140    -0.7470 h1         1 GQY       0.045700
@<TRIPOS>BOND
     1     1     5 1   
     2     1    16 1   
     3     1    17 1   
     4     2     3 ar  
     5     2    11 ar  
     6     2    12 1   
     7     3     4 ar  
     8     3    18 1   
     9     4     5 ar  
    10     4    19 1   
    11     5    10 ar  
    12     6    12 1   
    13     6    13 1   
    14     6    20 1   
    15     6    21 1   
    16     7    14 1   
    17     7    15 1   
    18     7    22 1   
    19     7    23 1   
    20     8     9 1   
    21     8    24 1   
    22     8    25 1   
    23     8    26 1   
    24     9    10 1   
    25    10    11 ar  
    26    11    27 1   
    27    12    15 1   
    28    13    14 1   
    29    13    28 1   
    30    13    29 1   
    31    15    30 1   
    32    15    31 1   
@<TRIPOS>SUBSTRUCTURE
     1 GQY         1 TEMP              0 ****  ****    0 ROOT
