@<TRIPOS>MOLECULE
GQY
   31    32     1     0     0
SMALL
No Charge or Current Charge


@<TRIPOS>ATOM
      1 N1           4.0490    -1.3190    -0.2120 nv         1 GQY      -1.041000
      2 C4          -0.0750    -0.4520    -0.0810 ca         1 GQY       0.272000
      3 C5           0.3870    -1.7640    -0.3070 ca         1 GQY      -0.158000
      4 C6           1.7650    -2.0420    -0.3490 ca         1 GQY      -0.126000
      5 C7           2.7030    -1.0140    -0.1650 ca         1 GQY       0.226000
      6 C8          -2.4580    -1.1940     0.3910 c6         1 GQY       0.151300
      7 C10         -3.3930     1.4480    -0.3930 c6         1 GQY       0.149100
      8 C1           2.8220     2.6880     0.4960 c3         1 GQY       0.150900
      9 O1           3.1910     1.3170     0.2580 os         1 GQY      -0.349100
     10 C2           2.2500     0.3130     0.0690 ca         1 GQY       0.110100
     11 C3           0.8620     0.5800     0.1090 ca         1 GQY      -0.191000
     12 N2          -1.4580    -0.1600    -0.0350 nh         1 GQY      -0.772400
     13 C9          -3.7990    -0.5590     0.8690 c6         1 GQY       0.149100
     14 O2          -4.3120     0.3640    -0.1200 os         1 GQY      -0.447000
     15 C11         -2.0340     0.9020    -0.9260 c6         1 GQY       0.151300
     16 H1           4.3620    -2.2870    -0.2450 hn         1 GQY       0.436500
     17 H2           4.7310    -0.5970     0.0170 hn         1 GQY       0.436500
     18 H3          -0.3170    -2.5750    -0.4640 ha         1 GQY       0.114000
     19 H4           2.1000    -3.0600    -0.5300 ha         1 GQY       0.112000
     20 H5          -2.6700    -1.8770    -0.4450 h1         1 GQY       0.045700
     21 H6          -2.0500    -1.8000     1.2140 h1         1 GQY       0.045700
     22 H7          -3.8410     2.1220    -1.1370 h1         1 GQY       0.051700
     23 H8          -3.2270     2.0230     0.5300 h1         1 GQY       0.051700
     24 H9           2.2400     3.0870    -0.3440 h1         1 GQY       0.039033
     25 H10          2.2260     2.7780     1.4140 h1         1 GQY       0.039033
     26 H11          3.7190     3.3080     0.6130 h1         1 GQY       0.039033
     27 H12          0.4940     1.5810     0.3000 ha         1 GQY       0.120000
     28 H13         -4.5430    -1.3480     1.0460 h1         1 GQY       0.051700
     29 H14         -3.6400    -0.0230     1.8160 h1         1 GQY       0.051700
     30 H15         -2.1900     0.4920    -1.9350 h1         1 GQY       0.045700
     31 H16         -1.3400     1.7480    -1.0280 h1         1 GQY       0.045700
@<TRIPOS>BOND
     1     1     5 1   
     2     1    16 1   
     3     1    17 1   
     4     2     3 ar  
     5     2    11 ar  
     6     2    12 1   
     7     3     4 ar  
     8     3    18 1   
     9     4     5 ar  
    10     4    19 1   
    11     5    10 ar  
    12     6    12 1   
    13     6    13 1   
    14     6    20 1   
    15     6    21 1   
    16     7    14 1   
    17     7    15 1   
    18     7    22 1   
    19     7    23 1   
    20     8     9 1   
    21     8    24 1   
    22     8    25 1   
    23     8    26 1   
    24     9    10 1   
    25    10    11 ar  
    26    11    27 1   
    27    12    15 1   
    28    13    14 1   
    29    13    28 1   
    30    13    29 1   
    31    15    30 1   
    32    15    31 1   
@<TRIPOS>SUBSTRUCTURE
     1 GQY         1 TEMP              0 ****  ****    0 ROOT
