@<TRIPOS>MOLECULE
GQZ
   31    32     1     0     0
SMALL
abcg2


@<TRIPOS>ATOM
      1 C10         -2.8170    -0.3770    -0.1800 ca         1 GQZ      -0.164600
      2 C11         -1.5830     0.2590    -0.2040 ca         1 GQZ      -0.005000
      3 C12         -0.4310    -0.4150     0.1860 ca         1 GQZ      -0.162600
      4 C13         -0.5250    -1.7380     0.6150 ca         1 GQZ      -0.067000
      5 C14         -1.7540    -2.3770     0.6340 ca         1 GQZ      -0.126000
      6 C15         -4.0100     0.4010    -0.6330 c          1 GQZ       0.609700
      7 O17         -6.2950     0.7430    -0.2970 oh         1 GQZ      -0.429100
      8 C1           4.2290    -0.9960    -0.4500 ca         1 GQZ      -0.148500
      9 C2           3.3080    -0.0240    -0.0510 ca         1 GQZ      -0.022000
     10 C3           3.7720     1.2420     0.3120 ca         1 GQZ      -0.148500
     11 C4           5.1340     1.5090     0.2720 ca         1 GQZ      -0.083000
     12 C5           6.0480     0.5440    -0.1240 ca         1 GQZ      -0.135000
     13 C6           5.5840    -0.7140    -0.4850 ca         1 GQZ      -0.083000
     14 N7           1.9640    -0.4130    -0.0290 ns         1 GQZ      -0.141000
     15 C8           0.8580     0.3440     0.1700 c          1 GQZ       0.620700
     16 C9          -2.8980    -1.7050     0.2340 ca         1 GQZ      -0.065000
     17 N16         -5.1710     0.0070    -0.0670 ns         1 GQZ      -0.376400
     18 O18          0.8730     1.5540     0.3170 o          1 GQZ      -0.570100
     19 O19         -3.9290     1.2940    -1.4560 o          1 GQZ      -0.551100
     20 H1          -1.5160     1.2890    -0.5290 ha         1 GQZ       0.159000
     21 H2           0.3480    -2.2780     0.9600 ha         1 GQZ       0.118000
     22 H3          -1.8220    -3.4060     0.9610 ha         1 GQZ       0.122000
     23 H4          -6.8070     0.2480    -0.9500 ho         1 GQZ       0.450000
     24 H6           3.0910     2.0170     0.6240 ha         1 GQZ       0.127000
     25 H7           5.4790     2.4930     0.5600 ha         1 GQZ       0.113500
     26 H8           7.1070     0.7670    -0.1510 ha         1 GQZ       0.116000
     27 H9           6.2770    -1.4850    -0.7970 ha         1 GQZ       0.113500
     28 H10          1.8110    -1.3810    -0.2650 hn         1 GQZ       0.151000
     29 H11         -3.8430    -2.2330     0.2330 ha         1 GQZ       0.119000
     30 H12         -5.1870    -0.5010     0.8060 hn         1 GQZ       0.332500
     31 H5           3.8810    -1.9810    -0.7370 ha         1 GQZ       0.127000
@<TRIPOS>BOND
     1     1     2 ar  
     2     1     6 1   
     3     1    16 ar  
     4     2     3 ar  
     5     2    20 1   
     6     3     4 ar  
     7     3    15 1   
     8     4     5 ar  
     9     4    21 1   
    10     5    16 ar  
    11     5    22 1   
    12     6    17 1   
    13     6    19 2   
    14     7    17 1   
    15     7    23 1   
    16     8     9 ar  
    17     8    13 ar  
    18     8    31 1   
    19     9    10 ar  
    20     9    14 1   
    21    10    11 ar  
    22    10    24 1   
    23    11    12 ar  
    24    11    25 1   
    25    12    13 ar  
    26    12    26 1   
    27    13    27 1   
    28    14    15 1   
    29    14    28 1   
    30    15    18 2   
    31    16    29 1   
    32    17    30 1   
@<TRIPOS>SUBSTRUCTURE
     1 GQZ         1 TEMP              0 ****  ****    0 ROOT
