@<TRIPOS>MOLECULE
GQZ
   31    32     1     0     0
SMALL
No Charge or Current Charge


@<TRIPOS>ATOM
      1 C10         -2.9060    -0.2640    -0.0760 ca         1 GQZ      -0.164600
      2 C11         -1.6540     0.3910    -0.1350 ca         1 GQZ      -0.005000
      3 C12         -0.4380    -0.3240    -0.0300 ca         1 GQZ      -0.162600
      4 C13         -0.4910    -1.7280     0.1350 ca         1 GQZ      -0.067000
      5 C14         -1.7280    -2.3880     0.1920 ca         1 GQZ      -0.126000
      6 C15         -4.1760     0.5560    -0.1940 c          1 GQZ       0.609700
      7 O17         -6.6350     0.5780     0.0830 oh         1 GQZ      -0.429100
      8 C1           4.3290    -1.0840     0.0770 ca         1 GQZ      -0.148500
      9 C2           3.4140    -0.0160     0.0010 ca         1 GQZ      -0.022000
     10 C3           3.9120     1.3050    -0.0710 ca         1 GQZ      -0.148500
     11 C4           5.2980     1.5440    -0.0720 ca         1 GQZ      -0.083000
     12 C5           6.1990     0.4700     0.0010 ca         1 GQZ      -0.135000
     13 C6           5.7140    -0.8450     0.0760 ca         1 GQZ      -0.083000
     14 N7           2.0280    -0.3400     0.0090 ns         1 GQZ      -0.141000
     15 C8           0.8770     0.4340    -0.0990 c          1 GQZ       0.620700
     16 C9          -2.9280    -1.6690     0.0880 ca         1 GQZ      -0.065000
     17 N16         -5.3800    -0.1320    -0.0680 ns         1 GQZ      -0.376400
     18 O18          0.8950     1.6520    -0.2430 o          1 GQZ      -0.570100
     19 O19         -4.1490     1.7630    -0.4030 o          1 GQZ      -0.551100
     20 H1          -1.6270     1.4730    -0.2620 ha         1 GQZ       0.159000
     21 H2           0.4120    -2.3270     0.2210 ha         1 GQZ       0.118000
     22 H3          -1.7570    -3.4690     0.3170 ha         1 GQZ       0.122000
     23 H4          -7.2220     0.1580    -0.5890 ho         1 GQZ       0.450000
     24 H6           3.2480     2.1610    -0.1250 ha         1 GQZ       0.127000
     25 H7           5.6730     2.5630    -0.1280 ha         1 GQZ       0.113500
     26 H8           7.2710     0.6570     0.0010 ha         1 GQZ       0.116000
     27 H9           6.4110    -1.6790     0.1340 ha         1 GQZ       0.113500
     28 H10          1.8480    -1.3290     0.1150 hn         1 GQZ       0.151000
     29 H11         -3.8630    -2.2220     0.1310 ha         1 GQZ       0.119000
     30 H12         -5.3700    -1.0950     0.2590 hn         1 GQZ       0.332500
     31 H5           3.9680    -2.1080     0.1350 ha         1 GQZ       0.127000
@<TRIPOS>BOND
     1     1     2 ar  
     2     1     6 1   
     3     1    16 ar  
     4     2     3 ar  
     5     2    20 1   
     6     3     4 ar  
     7     3    15 1   
     8     4     5 ar  
     9     4    21 1   
    10     5    16 ar  
    11     5    22 1   
    12     6    17 1   
    13     6    19 2   
    14     7    17 1   
    15     7    23 1   
    16     8     9 ar  
    17     8    13 ar  
    18     8    31 1   
    19     9    10 ar  
    20     9    14 1   
    21    10    11 ar  
    22    10    24 1   
    23    11    12 ar  
    24    11    25 1   
    25    12    13 ar  
    26    12    26 1   
    27    13    27 1   
    28    14    15 1   
    29    14    28 1   
    30    15    18 2   
    31    16    29 1   
    32    17    30 1   
@<TRIPOS>SUBSTRUCTURE
     1 GQZ         1 TEMP              0 ****  ****    0 ROOT
