@<TRIPOS>MOLECULE
GR1
   68    70     1     0     0
SMALL
No Charge or Current Charge


@<TRIPOS>ATOM
      1 N1           1.1860    -0.5700     6.9000 n          1 GR1      -0.412800
      2 C7           1.4010    -1.5280     8.0170 c3         1 GR1       0.105500
      3 O1           0.0110    -2.1250     5.6680 o          1 GR1      -0.600100
      4 C8          -0.8430     0.6870     2.5420 cp         1 GR1      -0.006000
      5 C9          -1.0550     2.0150     2.9880 ca         1 GR1      -0.095000
      6 C17          0.2940    -0.3280    -4.0740 c3         1 GR1      -0.044400
      7 C18          1.1540     0.4350    -5.1100 c3         1 GR1      -0.075400
      8 C19          2.6500     0.0530    -5.0500 c3         1 GR1      -0.064400
      9 C20          3.5140     0.8140    -6.0840 c3         1 GR1      -0.117700
     10 C21          4.9840     0.4510    -6.0170 c2         1 GR1       0.610200
     11 N2           5.8510     1.1260    -5.3980 n2         1 GR1      -0.828100
     12 N3           5.3490    -0.6740    -6.6740 nv         1 GR1      -1.092200
     13 O2          -1.9370    -1.1580    -5.9550 o          1 GR1      -0.730000
     14 O2A         -2.2500     0.9690    -6.0050 o          1 GR1      -0.730000
     15 O3          -4.4350    -1.2360    -2.4770 oh         1 GR1      -0.659000
     16 C10         -2.0610    -0.6800    -2.9950 c5         1 GR1       0.000600
     17 C11         -2.4270     0.4970    -0.9330 ca         1 GR1      -0.088300
     18 C12         -1.6250    -0.4300    -1.5650 ca         1 GR1      -0.033300
     19 C13         -3.5670    -0.1780    -2.9000 c5         1 GR1       0.170300
     20 C14         -3.5360     0.9820    -1.8280 c5         1 GR1      -0.075100
     21 C22         -0.5640    -1.0400    -0.8780 ca         1 GR1      -0.101000
     22 C23         -0.3110    -0.6720     0.4570 ca         1 GR1      -0.102000
     23 C24         -1.1150     0.2970     1.1210 cp         1 GR1      -0.077000
     24 C25         -2.1900     0.8780     0.3970 ca         1 GR1      -0.089000
     25 C3          -0.8090     2.3770     4.3210 ca         1 GR1      -0.121000
     26 C4          -0.3380     1.4240     5.2360 ca         1 GR1      -0.102000
     27 C26          0.3910    -0.9670     5.7930 c          1 GR1       0.615700
     28 C5          -0.0920     0.0960     4.8230 ca         1 GR1      -0.145600
     29 C6          -0.3670    -0.2600     3.4840 ca         1 GR1      -0.069000
     30 C27          0.4220    -1.2980     9.1800 c3         1 GR1      -0.109100
     31 C1           2.2740     0.4250     6.7000 c3         1 GR1       0.105500
     32 C2           2.4370     1.4200     7.8660 c3         1 GR1      -0.109100
     33 C16         -1.2050     0.0890    -4.0550 c3         1 GR1      -0.187700
     34 C15         -1.8420    -0.0450    -5.4590 c          1 GR1       0.712000
     35 H72          2.4260    -1.4260     8.3970 h1         1 GR1       0.049950
     36 H71          1.3050    -2.5620     7.6630 h1         1 GR1       0.049950
     37 H9          -1.4080     2.7720     2.2920 ha         1 GR1       0.119000
     38 H172         0.7290    -0.1480    -3.0840 hc         1 GR1       0.023200
     39 H171         0.3720    -1.4050    -4.2650 hc         1 GR1       0.023200
     40 H182         0.7790     0.2340    -6.1210 hc         1 GR1       0.047700
     41 H181         1.0510     1.5140    -4.9380 hc         1 GR1       0.047700
     42 H192         3.0350     0.2570    -4.0430 hc         1 GR1       0.046200
     43 H191         2.7530    -1.0270    -5.2170 hc         1 GR1       0.046200
     44 H202         3.1240     0.6220    -7.0910 hc         1 GR1       0.049200
     45 H201         3.3950     1.8910    -5.9180 hc         1 GR1       0.049200
     46 H2N          6.7510     0.6400    -5.4830 hn         1 GR1       0.351400
     47 H32          6.2650    -0.6290    -7.1080 hn         1 GR1       0.453000
     48 H31          4.6240    -1.0650    -7.2680 hn         1 GR1       0.453000
     49 H3          -5.3170    -0.8350    -2.3240 ho         1 GR1       0.423000
     50 H10         -2.0230    -1.7460    -3.2500 hc         1 GR1       0.101700
     51 H13         -3.9230     0.2090    -3.8660 h1         1 GR1       0.080700
     52 H142        -3.2840     1.9440    -2.2880 hc         1 GR1       0.049200
     53 H141        -4.4920     1.1050    -1.3060 hc         1 GR1       0.049200
     54 H22          0.0580    -1.7830    -1.3710 ha         1 GR1       0.120000
     55 H23          0.5250    -1.1330     0.9760 ha         1 GR1       0.100000
     56 H25         -2.8470     1.6030     0.8700 ha         1 GR1       0.101000
     57 H3C1        -0.9890     3.3990     4.6470 ha         1 GR1       0.107000
     58 H4          -0.1810     1.7190     6.2710 ha         1 GR1       0.108000
     59 H6          -0.2130    -1.2890     3.1690 ha         1 GR1       0.129000
     60 H273         0.6170    -2.0120     9.9890 hc         1 GR1       0.038700
     61 H272         0.5270    -0.2840     9.5820 hc         1 GR1       0.038700
     62 H271        -0.6130    -1.4320     8.8430 hc         1 GR1       0.038700
     63 H12          3.2180    -0.1200     6.5750 h1         1 GR1       0.049950
     64 H11          2.1210     0.9890     5.7720 h1         1 GR1       0.049950
     65 H23A         3.2220     2.1490     7.6330 hc         1 GR1       0.038700
     66 H22A         1.5030     1.9660     8.0430 hc         1 GR1       0.038700
     67 H21          2.7180     0.9040     8.7920 hc         1 GR1       0.038700
     68 H16         -1.2280     1.1530    -3.7910 hc         1 GR1       0.033700
@<TRIPOS>BOND
     1     1     2 1   
     2     1    27 1   
     3     1    31 1   
     4     2    30 1   
     5     2    35 1   
     6     2    36 1   
     7     3    27 2   
     8     4     5 ar  
     9     4    23 1   
    10     4    29 ar  
    11     5    25 ar  
    12     5    37 1   
    13     6     7 1   
    14     6    33 1   
    15     6    38 1   
    16     6    39 1   
    17     7     8 1   
    18     7    40 1   
    19     7    41 1   
    20     8     9 1   
    21     8    42 1   
    22     8    43 1   
    23     9    10 1   
    24     9    44 1   
    25     9    45 1   
    26    10    11 2   
    27    10    12 1   
    28    11    46 1   
    29    12    47 1   
    30    12    48 1   
    31    13    34 1   
    32    14    34 1   
    33    15    19 1   
    34    15    49 1   
    35    16    18 1   
    36    16    19 1   
    37    16    33 1   
    38    16    50 1   
    39    17    18 ar  
    40    17    20 1   
    41    17    24 ar  
    42    18    21 ar  
    43    19    20 1   
    44    19    51 1   
    45    20    52 1   
    46    20    53 1   
    47    21    22 ar  
    48    21    54 1   
    49    22    23 ar  
    50    22    55 1   
    51    23    24 ar  
    52    24    56 1   
    53    25    26 ar  
    54    25    57 1   
    55    26    28 ar  
    56    26    58 1   
    57    27    28 1   
    58    28    29 ar  
    59    29    59 1   
    60    30    60 1   
    61    30    61 1   
    62    30    62 1   
    63    31    32 1   
    64    31    63 1   
    65    31    64 1   
    66    32    65 1   
    67    32    66 1   
    68    32    67 1   
    69    33    34 1   
    70    33    68 1   
@<TRIPOS>SUBSTRUCTURE
     1 GR1         1 TEMP              0 ****  ****    0 ROOT
