@<TRIPOS>MOLECULE
GR1
   68    70     1     0     0
SMALL
abcg2


@<TRIPOS>ATOM
      1 N1           1.2120    -0.6600     6.5040 n          1 GR1      -0.412800
      2 C7           1.4930    -1.5770     7.6040 c3         1 GR1       0.105500
      3 O1          -0.7890    -1.6390     6.1340 o          1 GR1      -0.600100
      4 C8          -0.9690     0.7500     2.5530 cp         1 GR1      -0.006000
      5 C9          -1.1130     2.0930     2.9090 ca         1 GR1      -0.095000
      6 C17          0.2300    -0.4380    -3.8500 c3         1 GR1      -0.044400
      7 C18          1.1290     0.2640    -4.8620 c3         1 GR1      -0.075400
      8 C19          2.5950    -0.1190    -4.6980 c3         1 GR1      -0.064400
      9 C20          3.4870     0.6030    -5.6930 c3         1 GR1      -0.117700
     10 C21          4.9550     0.2650    -5.6060 c2         1 GR1       0.610200
     11 N2           5.3780    -0.5620    -4.7310 n2         1 GR1      -0.828100
     12 N3           5.7190     0.8780    -6.5600 nv         1 GR1      -1.092200
     13 O2          -1.8830    -1.4450    -5.6970 o          1 GR1      -0.730000
     14 O2A         -2.0770     0.7480    -6.0270 o          1 GR1      -0.730000
     15 O3          -4.3810    -1.2940    -2.4560 oh         1 GR1      -0.659000
     16 C10         -2.1030    -0.7610    -2.8900 c5         1 GR1       0.000600
     17 C11         -2.4770     0.4670    -0.8810 ca         1 GR1      -0.088300
     18 C12         -1.6770    -0.5120    -1.4670 ca         1 GR1      -0.033300
     19 C13         -3.5510    -0.2330    -2.8820 c5         1 GR1       0.170300
     20 C14         -3.5320     0.9100    -1.8530 c5         1 GR1      -0.075100
     21 C22         -0.6620    -1.1000    -0.7290 ca         1 GR1      -0.101000
     22 C23         -0.4400    -0.6870     0.5800 ca         1 GR1      -0.102000
     23 C24         -1.2230     0.3080     1.1670 cp         1 GR1      -0.077000
     24 C25         -2.2580     0.8820     0.4190 ca         1 GR1      -0.089000
     25 C3          -0.8710     2.5120     4.2080 ca         1 GR1      -0.121000
     26 C4          -0.4600     1.6030     5.1720 ca         1 GR1      -0.102000
     27 C26          0.0260    -0.7600     5.8760 c          1 GR1       0.615700
     28 C5          -0.3090     0.2620     4.8330 ca         1 GR1      -0.145600
     29 C6          -0.5830    -0.1590     3.5380 ca         1 GR1      -0.069000
     30 C27          0.8250    -1.1740     8.9110 c3         1 GR1      -0.109100
     31 C1           2.2940     0.2200     6.0840 c3         1 GR1       0.105500
     32 C2           2.5940     1.3410     7.0640 c3         1 GR1      -0.109100
     33 C16         -1.2360    -0.0090    -3.9190 c3         1 GR1      -0.187700
     34 C15         -1.7860    -0.2520    -5.3410 c          1 GR1       0.712000
     35 H72          2.5750    -1.6030     7.7340 h1         1 GR1       0.049950
     36 H71          1.1880    -2.5850     7.3230 h1         1 GR1       0.049950
     37 H9          -1.4010     2.8210     2.1610 ha         1 GR1       0.119000
     38 H172         0.6210    -0.2330    -2.8500 hc         1 GR1       0.023200
     39 H171         0.2990    -1.5220    -3.9900 hc         1 GR1       0.023200
     40 H182         0.8090     0.0260    -5.8810 hc         1 GR1       0.047700
     41 H181         1.0190     1.3490    -4.7530 hc         1 GR1       0.047700
     42 H192         2.9240     0.1060    -3.6800 hc         1 GR1       0.046200
     43 H191         2.7070    -1.2000    -4.8210 hc         1 GR1       0.046200
     44 H202         3.1520     0.3950    -6.7150 hc         1 GR1       0.049200
     45 H201         3.3780     1.6860    -5.5680 hc         1 GR1       0.049200
     46 H2N          6.3860    -0.6820    -4.8020 hn         1 GR1       0.351400
     47 H32          6.7180     0.8950    -6.4320 hn         1 GR1       0.453000
     48 H31          5.3500     1.6960    -7.0150 hn         1 GR1       0.453000
     49 H3          -5.2830    -0.9640    -2.3930 ho         1 GR1       0.423000
     50 H10         -2.0810    -1.8230    -3.1480 hc         1 GR1       0.101700
     51 H13         -3.8630     0.1320    -3.8670 h1         1 GR1       0.080700
     52 H142        -3.2430     1.8520    -2.3310 hc         1 GR1       0.049200
     53 H141        -4.5090     1.0810    -1.3950 hc         1 GR1       0.049200
     54 H22         -0.0400    -1.8760    -1.1590 ha         1 GR1       0.120000
     55 H23          0.3690    -1.1340     1.1450 ha         1 GR1       0.100000
     56 H25         -2.9020     1.6290     0.8680 ha         1 GR1       0.101000
     57 H3C1        -0.9920     3.5550     4.4680 ha         1 GR1       0.107000
     58 H4          -0.2700     1.9370     6.1840 ha         1 GR1       0.108000
     59 H6          -0.4980    -1.2110     3.2920 ha         1 GR1       0.129000
     60 H273         1.0850    -1.8870     9.6940 hc         1 GR1       0.038700
     61 H272         1.1490    -0.1850     9.2360 hc         1 GR1       0.038700
     62 H271        -0.2600    -1.1640     8.8160 hc         1 GR1       0.038700
     63 H12          3.1870    -0.3950     5.9500 h1         1 GR1       0.049950
     64 H11          2.0600     0.6320     5.1050 h1         1 GR1       0.049950
     65 H23A         3.4340     1.9310     6.6970 hc         1 GR1       0.038700
     66 H22A         1.7420     2.0100     7.1840 hc         1 GR1       0.038700
     67 H21          2.8660     0.9610     8.0490 hc         1 GR1       0.038700
     68 H16         -1.2840     1.0650    -3.7020 hc         1 GR1       0.033700
@<TRIPOS>BOND
     1     1     2 1   
     2     1    27 1   
     3     1    31 1   
     4     2    30 1   
     5     2    35 1   
     6     2    36 1   
     7     3    27 2   
     8     4     5 ar  
     9     4    23 1   
    10     4    29 ar  
    11     5    25 ar  
    12     5    37 1   
    13     6     7 1   
    14     6    33 1   
    15     6    38 1   
    16     6    39 1   
    17     7     8 1   
    18     7    40 1   
    19     7    41 1   
    20     8     9 1   
    21     8    42 1   
    22     8    43 1   
    23     9    10 1   
    24     9    44 1   
    25     9    45 1   
    26    10    11 2   
    27    10    12 1   
    28    11    46 1   
    29    12    47 1   
    30    12    48 1   
    31    13    34 1   
    32    14    34 1   
    33    15    19 1   
    34    15    49 1   
    35    16    18 1   
    36    16    19 1   
    37    16    33 1   
    38    16    50 1   
    39    17    18 ar  
    40    17    20 1   
    41    17    24 ar  
    42    18    21 ar  
    43    19    20 1   
    44    19    51 1   
    45    20    52 1   
    46    20    53 1   
    47    21    22 ar  
    48    21    54 1   
    49    22    23 ar  
    50    22    55 1   
    51    23    24 ar  
    52    24    56 1   
    53    25    26 ar  
    54    25    57 1   
    55    26    28 ar  
    56    26    58 1   
    57    27    28 1   
    58    28    29 ar  
    59    29    59 1   
    60    30    60 1   
    61    30    61 1   
    62    30    62 1   
    63    31    32 1   
    64    31    63 1   
    65    31    64 1   
    66    32    65 1   
    67    32    66 1   
    68    32    67 1   
    69    33    34 1   
    70    33    68 1   
@<TRIPOS>SUBSTRUCTURE
     1 GR1         1 TEMP              0 ****  ****    0 ROOT
