@<TRIPOS>MOLECULE
GR2
   36    39     1     0     0
SMALL
bcc


@<TRIPOS>ATOM
      1 C1           2.8140    -1.2440     0.0870 ca         1 GR2      -0.074300
      2 C2           3.5490    -2.2010    -0.6010 ca         1 GR2      -0.122000
      3 C3           4.9070    -1.9920    -0.8000 ca         1 GR2      -0.116000
      4 C4           5.5280    -0.8430    -0.3170 ca         1 GR2      -0.136000
      5 C5           4.7940     0.1130     0.3710 ca         1 GR2      -0.083000
      6 C6           3.4360    -0.1000     0.5620 ca         1 GR2      -0.121300
      7 C7           2.4580     0.7970     1.2590 c5         1 GR2       0.192400
      8 C8           1.0770     0.1350     1.0160 c5         1 GR2      -0.029500
      9 C9           1.3550    -1.2700     0.4380 c5         1 GR2      -0.020100
     10 C10          1.3320     2.2700    -0.0980 c          1 GR2       0.756800
     11 C11          0.4570     1.1090     0.0670 ce         1 GR2      -0.295400
     12 C12         -0.7310     1.0550    -0.5340 c2         1 GR2       0.126100
     13 C13         -2.8180     0.0720    -0.9220 c5         1 GR2       0.363100
     14 C14         -3.3740    -1.3060    -1.0750 c2         1 GR2      -0.171200
     15 C15         -4.4730    -1.4240    -0.3390 ce         1 GR2      -0.158400
     16 C16         -4.6820    -0.1240     0.3410 c          1 GR2       0.723800
     17 C17         -5.3950    -2.5670    -0.1400 c3         1 GR2      -0.037900
     18 O1           1.1690     3.2660    -0.7570 o          1 GR2      -0.579500
     19 O2           2.4270     2.0980     0.6500 os         1 GR2      -0.392900
     20 O3          -1.5410     0.0040    -0.3580 os         1 GR2      -0.313900
     21 O4          -5.5550     0.2040     1.0900 o          1 GR2      -0.529500
     22 O5          -3.6950     0.7220    -0.0250 os         1 GR2      -0.416900
     23 H1           3.0720    -3.0970    -0.9800 ha         1 GR2       0.132000
     24 H2           5.4890    -2.7300    -1.3370 ha         1 GR2       0.131000
     25 H3           6.5880    -0.6950    -0.4810 ha         1 GR2       0.134000
     26 H4           5.2760     1.0070     0.7490 ha         1 GR2       0.143000
     27 H5           2.6940     0.9460     2.3130 h1         1 GR2       0.090700
     28 H6           0.4980     0.0710     1.9390 hc         1 GR2       0.081700
     29 H7           0.7260    -1.5030    -0.4210 hc         1 GR2       0.061700
     30 H8           1.1550    -2.0370     1.1890 hc         1 GR2       0.061700
     31 H9          -1.0720     1.8490    -1.1950 h4         1 GR2       0.155000
     32 H10         -2.7970     0.6380    -1.8590 h2         1 GR2       0.088700
     33 H12         -5.4420    -2.8470     0.9130 hc         1 GR2       0.060367
     34 H13         -6.4070    -2.3040    -0.4500 hc         1 GR2       0.060367
     35 H14         -5.0740    -3.4340    -0.7120 hc         1 GR2       0.060367
     36 H11         -2.9130    -2.0490    -1.7100 ha         1 GR2       0.172000
@<TRIPOS>BOND
     1     1     2 ar  
     2     1     6 ar  
     3     1     9 1   
     4     2     3 ar  
     5     2    23 1   
     6     3     4 ar  
     7     3    24 1   
     8     4     5 ar  
     9     4    25 1   
    10     5     6 ar  
    11     5    26 1   
    12     6     7 1   
    13     7     8 1   
    14     7    19 1   
    15     7    27 1   
    16     8     9 1   
    17     8    11 1   
    18     8    28 1   
    19     9    29 1   
    20     9    30 1   
    21    10    11 1   
    22    10    18 2   
    23    10    19 1   
    24    11    12 2   
    25    12    20 1   
    26    12    31 1   
    27    13    14 1   
    28    13    20 1   
    29    13    22 1   
    30    13    32 1   
    31    14    15 2   
    32    14    36 1   
    33    15    16 1   
    34    15    17 1   
    35    16    21 2   
    36    16    22 1   
    37    17    33 1   
    38    17    34 1   
    39    17    35 1   
@<TRIPOS>SUBSTRUCTURE
     1 GR2         1 TEMP              0 ****  ****    0 ROOT
