@<TRIPOS>MOLECULE
GR2
   36    39     1     0     0
SMALL
No Charge or Current Charge


@<TRIPOS>ATOM
      1 C1           2.8850    -1.1880     0.0710 ca         1 GR2      -0.074300
      2 C2           3.6160    -1.9930    -0.8160 ca         1 GR2      -0.104000
      3 C3           4.9420    -1.6350    -1.1310 ca         1 GR2      -0.098000
      4 C4           5.5180    -0.4840    -0.5550 ca         1 GR2      -0.118000
      5 C5           4.7700     0.3110     0.3350 ca         1 GR2      -0.065000
      6 C6           3.4480    -0.0610     0.6360 ca         1 GR2      -0.121300
      7 C7           2.5010     0.6700     1.5550 c5         1 GR2       0.215600
      8 C8           1.1340    -0.0750     1.2920 c5         1 GR2      -0.029500
      9 C9           1.4710    -1.4260     0.5290 c5         1 GR2      -0.020100
     10 C10          1.2950     2.0860     0.2140 c          1 GR2       0.681300
     11 C11          0.4600     0.8580     0.2850 ce         1 GR2      -0.295400
     12 C12         -0.6980     0.7190    -0.3990 c2         1 GR2       0.076100
     13 C13         -2.6240    -0.3270    -1.1660 c5         1 GR2       0.409500
     14 C14         -3.4050    -1.6100    -0.9550 c2         1 GR2      -0.221200
     15 C15         -4.5530    -1.2690    -0.3610 ce         1 GR2      -0.158400
     16 C16         -4.6410     0.1930    -0.1850 c          1 GR2       0.648300
     17 C17         -5.6860    -2.2030     0.0300 c3         1 GR2      -0.037900
     18 O1           1.0110     3.0880    -0.4250 o          1 GR2      -0.504000
     19 O2           2.3330     2.0210     1.0910 os         1 GR2      -0.416100
     20 O3          -1.4940    -0.3970    -0.2680 os         1 GR2      -0.337100
     21 O4          -5.5720     0.8280     0.2870 o          1 GR2      -0.454000
     22 O5          -3.5030     0.7380    -0.7070 os         1 GR2      -0.440100
     23 H1           3.1670    -2.8820    -1.2540 ha         1 GR2       0.114000
     24 H2           5.5210    -2.2480    -1.8170 ha         1 GR2       0.113000
     25 H3           6.5420    -0.2080    -0.7990 ha         1 GR2       0.116000
     26 H4           5.2080     1.2020     0.7800 ha         1 GR2       0.125000
     27 H5           2.8340     0.6460     2.6020 h1         1 GR2       0.090700
     28 H6           0.5320    -0.2200     2.1970 hc         1 GR2       0.081700
     29 H7           0.7930    -1.6460    -0.3010 hc         1 GR2       0.061700
     30 H8           1.4240    -2.2820     1.2120 hc         1 GR2       0.061700
     31 H9          -1.0640     1.5020    -1.0700 h4         1 GR2       0.205000
     32 H10         -2.3010    -0.1630    -2.2030 h2         1 GR2       0.088700
     33 H12         -5.6450    -2.4460     1.0980 hc         1 GR2       0.060367
     34 H13         -6.6660    -1.7530    -0.1720 hc         1 GR2       0.060367
     35 H14         -5.6380    -3.1460    -0.5270 hc         1 GR2       0.060367
     36 H11         -3.0840    -2.6140    -1.2300 ha         1 GR2       0.222000
@<TRIPOS>BOND
     1     1     2 ar  
     2     1     6 ar  
     3     1     9 1   
     4     2     3 ar  
     5     2    23 1   
     6     3     4 ar  
     7     3    24 1   
     8     4     5 ar  
     9     4    25 1   
    10     5     6 ar  
    11     5    26 1   
    12     6     7 1   
    13     7     8 1   
    14     7    19 1   
    15     7    27 1   
    16     8     9 1   
    17     8    11 1   
    18     8    28 1   
    19     9    29 1   
    20     9    30 1   
    21    10    11 1   
    22    10    18 2   
    23    10    19 1   
    24    11    12 2   
    25    12    20 1   
    26    12    31 1   
    27    13    14 1   
    28    13    20 1   
    29    13    22 1   
    30    13    32 1   
    31    14    15 2   
    32    14    36 1   
    33    15    16 1   
    34    15    17 1   
    35    16    21 2   
    36    16    22 1   
    37    17    33 1   
    38    17    34 1   
    39    17    35 1   
@<TRIPOS>SUBSTRUCTURE
     1 GR2         1 TEMP              0 ****  ****    0 ROOT
