@<TRIPOS>MOLECULE
GR3
   84    87     1     0     0
SMALL
No Charge or Current Charge


@<TRIPOS>ATOM
      1 C1          -1.1030    -1.4490    -3.4580 c6         1 GR3      -0.058400
      2 C2          -1.0230    -1.6510    -4.9900 c6         1 GR3      -0.095400
      3 C3          -0.4770    -0.3820    -5.6990 c6         1 GR3       0.199300
      4 C4           0.9800    -0.0160    -5.2600 c6         1 GR3      -0.178000
      5 C5           0.9930     0.0590    -3.6310 c6         1 GR3      -0.022700
      6 C6           2.4040     0.3070    -3.0130 c6         1 GR3      -0.040200
      7 C7           2.4210     0.2610    -1.4870 c2         1 GR3      -0.187200
      8 C8           1.4060    -0.1760    -0.7080 c2         1 GR3      -0.133400
      9 C9           0.0710    -0.6810    -1.2990 c6         1 GR3      -0.011500
     10 C10          0.2890    -1.1650    -2.8130 c6         1 GR3      -0.033000
     11 C11         -0.6740    -1.6740    -0.3430 c6         1 GR3      -0.066400
     12 C12         -0.7820    -1.1900     1.1410 c6         1 GR3      -0.054400
     13 C13          0.2570    -0.0910     1.5530 c5         1 GR3      -0.031000
     14 C14          1.6400    -0.3530     0.8110 c5         1 GR3       0.010200
     15 C15          2.4980     0.7850     1.4480 c5         1 GR3      -0.101400
     16 C16          2.0750     0.7750     2.9620 c5         1 GR3       0.160300
     17 C17          0.7830    -0.1380     3.0450 c5         1 GR3      -0.052700
     18 C18         -0.4270     1.3080     1.2830 c3         1 GR3      -0.085100
     19 C19          1.1120    -2.5320    -2.7840 c3         1 GR3      -0.074100
     20 C22         -1.4500    -0.6240     4.3610 c3         1 GR3      -0.174400
     21 C23         -2.3170    -0.2080     5.5590 c          1 GR3       0.573300
     22 C24         -2.0910    -0.9550     6.8350 ce         1 GR3      -0.329200
     23 C25         -2.2580    -0.4770     8.0930 c2         1 GR3      -0.018400
     24 C26         -1.9550    -1.3130     9.3220 c3         1 GR3      -0.075400
     25 C27         -2.7600     0.9140     8.4490 c3         1 GR3      -0.075400
     26 C28          2.3380    -1.7410     1.0380 c3         1 GR3      -0.083100
     27 C29          1.2310     1.3850    -5.9590 c          1 GR3       0.726000
     28 C30          2.0090    -1.0390    -5.9190 c3         1 GR3      -0.061100
     29 O31          1.6330     2.3030    -5.2610 o          1 GR3      -0.722000
     30 O32          3.1170     0.2840     3.8040 oh         1 GR3      -0.669000
     31 O34          1.4020     1.4000    -7.1710 o          1 GR3      -0.722000
     32 O35         -3.0870     0.7390     5.4740 o          1 GR3      -0.534100
     33 O36         -1.3610     0.7350    -5.4540 os         1 GR3      -0.427100
     34 C37         -2.5740     0.8350    -6.0810 c          1 GR3       0.609100
     35 C38         -3.3470     2.0590    -5.6080 c3         1 GR3      -0.157100
     36 O39         -2.9890     0.0540    -6.9260 o          1 GR3      -0.527000
     37 C20         -0.1820     0.2760     4.2140 c3         1 GR3      -0.164700
     38 C21          0.6010     0.3110     5.5450 c          1 GR3       0.606900
     39 H11         -1.5550    -2.3420    -3.0070 hc         1 GR3       0.027700
     40 H12         -1.7950    -0.6240    -3.2380 hc         1 GR3       0.027700
     41 H21A        -0.4060    -2.5230    -5.2370 hc         1 GR3       0.037200
     42 H22         -2.0240    -1.8920    -5.3720 hc         1 GR3       0.037200
     43 H3          -0.4650    -0.5690    -6.7840 h1         1 GR3       0.082700
     44 H5           0.3970     0.9480    -3.3790 hc         1 GR3       0.076700
     45 H61          2.8030     1.2770    -3.3300 hc         1 GR3       0.062700
     46 H62          3.1140    -0.4430    -3.3840 hc         1 GR3       0.062700
     47 H7           3.3770     0.5450    -1.0470 ha         1 GR3       0.153000
     48 H9          -0.5880     0.1900    -1.3770 hc         1 GR3       0.055700
     49 H111        -1.6860    -1.8690    -0.7190 hc         1 GR3       0.035200
     50 H112        -0.1770    -2.6490    -0.3440 hc         1 GR3       0.035200
     51 H121        -1.7970    -0.8070     1.2960 hc         1 GR3       0.026200
     52 H122        -0.6880    -2.0630     1.8010 hc         1 GR3       0.026200
     53 H151         2.2880     1.7590     0.9910 hc         1 GR3       0.054200
     54 H152         3.5730     0.6180     1.3160 hc         1 GR3       0.054200
     55 H16          1.8280     1.8030     3.2610 h1         1 GR3       0.040700
     56 H17          1.0680    -1.1650     3.2970 hc         1 GR3       0.062700
     57 H181        -1.4150     1.3660     1.7560 hc         1 GR3       0.037700
     58 H182         0.1410     2.1510     1.6900 hc         1 GR3       0.037700
     59 H183        -0.5740     1.5340     0.2270 hc         1 GR3       0.037700
     60 H191         2.0720    -2.4260    -2.2670 hc         1 GR3       0.024367
     61 H192         0.5610    -3.3300    -2.2750 hc         1 GR3       0.024367
     62 H193         1.3240    -2.9290    -3.7750 hc         1 GR3       0.024367
     63 H221        -1.1220    -1.6630     4.4840 hc         1 GR3       0.069700
     64 H222        -2.0690    -0.5240     3.4660 hc         1 GR3       0.069700
     65 H24         -1.6570    -1.9440     6.7050 ha         1 GR3       0.178000
     66 H261        -2.8370    -1.4020     9.9670 hc         1 GR3       0.050867
     67 H262        -1.6410    -2.3300     9.0560 hc         1 GR3       0.050867
     68 H263        -1.1480    -0.8670     9.9150 hc         1 GR3       0.050867
     69 H271        -2.3030     1.6800     7.8130 hc         1 GR3       0.050867
     70 H272        -3.8480     0.9780     8.3310 hc         1 GR3       0.050867
     71 H273        -2.5240     1.1840     9.4860 hc         1 GR3       0.050867
     72 H281         3.1910    -1.8540     0.3590 hc         1 GR3       0.033700
     73 H282         2.7410    -1.8620     2.0490 hc         1 GR3       0.033700
     74 H283         1.6730    -2.5890     0.8550 hc         1 GR3       0.033700
     75 H301         1.8910    -1.0940    -7.0080 hc         1 GR3       0.021367
     76 H302         3.0450    -0.7390    -5.7240 hc         1 GR3       0.021367
     77 H303         1.8930    -2.0630    -5.5650 hc         1 GR3       0.021367
     78 HO3          3.8970     0.8630     3.6560 ho         1 GR3       0.443000
     79 H381        -4.3180     2.1640    -6.1050 hc         1 GR3       0.058367
     80 H382        -3.4500     2.0110    -4.5180 hc         1 GR3       0.058367
     81 H383        -2.7210     2.9470    -5.7420 hc         1 GR3       0.058367
     82 H20         -0.5270     1.3040     4.0470 hc         1 GR3       0.082700
     83 H21          1.0580    -0.6540     5.8600 h4         1 GR3      -0.024800
     84 O33          0.7170     1.3190     6.2340 o          1 GR3      -0.522100
@<TRIPOS>BOND
     1     1     2 1   
     2     1    10 1   
     3     1    39 1   
     4     1    40 1   
     5     2     3 1   
     6     2    41 1   
     7     2    42 1   
     8     3     4 1   
     9     3    33 1   
    10     3    43 1   
    11     4     5 1   
    12     4    27 1   
    13     4    28 1   
    14     5     6 1   
    15     5    10 1   
    16     5    44 1   
    17     6     7 1   
    18     6    45 1   
    19     6    46 1   
    20     7     8 2   
    21     7    47 1   
    22     8     9 1   
    23     8    14 1   
    24     9    10 1   
    25     9    11 1   
    26     9    48 1   
    27    10    19 1   
    28    11    12 1   
    29    11    49 1   
    30    11    50 1   
    31    12    13 1   
    32    12    51 1   
    33    12    52 1   
    34    13    14 1   
    35    13    17 1   
    36    13    18 1   
    37    14    15 1   
    38    14    26 1   
    39    15    16 1   
    40    15    53 1   
    41    15    54 1   
    42    16    17 1   
    43    16    30 1   
    44    16    55 1   
    45    17    37 1   
    46    17    56 1   
    47    18    57 1   
    48    18    58 1   
    49    18    59 1   
    50    19    60 1   
    51    19    61 1   
    52    19    62 1   
    53    20    21 1   
    54    20    37 1   
    55    20    63 1   
    56    20    64 1   
    57    21    22 1   
    58    21    32 2   
    59    22    23 2   
    60    22    65 1   
    61    23    24 1   
    62    23    25 1   
    63    24    66 1   
    64    24    67 1   
    65    24    68 1   
    66    25    69 1   
    67    25    70 1   
    68    25    71 1   
    69    26    72 1   
    70    26    73 1   
    71    26    74 1   
    72    27    29 1   
    73    27    31 1   
    74    28    75 1   
    75    28    76 1   
    76    28    77 1   
    77    30    78 1   
    78    33    34 1   
    79    34    35 1   
    80    34    36 2   
    81    35    79 1   
    82    35    80 1   
    83    35    81 1   
    84    37    38 1   
    85    37    82 1   
    86    38    83 1   
    87    38    84 2   
@<TRIPOS>SUBSTRUCTURE
     1 GR3         1 TEMP              0 ****  ****    0 ROOT
