@<TRIPOS>MOLECULE
GR3
   84    87     1     0     0
SMALL
bcc


@<TRIPOS>ATOM
      1 C1          -1.1000    -1.7370    -2.8630 c6         1 GR3      -0.058400
      2 C2          -1.3250    -1.9380    -4.3540 c6         1 GR3      -0.095400
      3 C3          -1.0110    -0.6830    -5.1410 c6         1 GR3       0.176100
      4 C4           0.4200    -0.1650    -4.9260 c6         1 GR3      -0.178000
      5 C5           0.7600    -0.1090    -3.4160 c6         1 GR3      -0.022700
      6 C6           2.2230     0.2350    -3.1460 c6         1 GR3      -0.040200
      7 C7           2.5320     0.2920    -1.6840 c2         1 GR3      -0.137200
      8 C8           1.7220    -0.1650    -0.7310 c2         1 GR3      -0.133400
      9 C9           0.3710    -0.7690    -1.0710 c6         1 GR3      -0.011500
     10 C10          0.3360    -1.3160    -2.5240 c6         1 GR3      -0.033000
     11 C11         -0.0890    -1.7520     0.0080 c6         1 GR3      -0.066400
     12 C12         -0.0810    -1.1700     1.4400 c6         1 GR3      -0.054400
     13 C13          0.8810     0.0160     1.6320 c5         1 GR3      -0.031000
     14 C14          2.1280    -0.1810     0.7260 c5         1 GR3       0.010200
     15 C15          3.0530     0.9420     1.2060 c5         1 GR3      -0.101400
     16 C16          2.8010     1.0320     2.7280 c5         1 GR3       0.137100
     17 C17          1.5510     0.1720     3.0210 c5         1 GR3      -0.052700
     18 C18          0.1530     1.3350     1.3120 c3         1 GR3      -0.085100
     19 C19          1.2570    -2.5350    -2.6450 c3         1 GR3      -0.074100
     20 C22         -0.4700    -0.1820     4.4970 c3         1 GR3      -0.174400
     21 C23         -1.2570     0.1970     5.7300 c          1 GR3       0.573300
     22 C24         -2.4590    -0.6190     5.9510 ce         1 GR3      -0.279200
     23 C25         -3.3580    -0.5350     6.9490 c2         1 GR3      -0.018400
     24 C26         -4.5130    -1.4860     6.9790 c3         1 GR3      -0.075400
     25 C27         -3.3410     0.4430     8.0790 c3         1 GR3      -0.075400
     26 C28          2.8610    -1.5140     1.0070 c3         1 GR3      -0.083100
     27 C29          0.4430     1.2600    -5.5850 c          1 GR3       0.936600
     28 C30          1.3710    -1.0540    -5.7400 c3         1 GR3      -0.061100
     29 O31          0.6710     2.2560    -4.8740 o          1 GR3      -0.827300
     30 O32          3.8620     0.5490     3.5290 oh         1 GR3      -0.606800
     31 O34          0.2110     1.2810    -6.8110 o          1 GR3      -0.827300
     32 O35         -0.8750     1.0990     6.4550 o          1 GR3      -0.534100
     33 O36         -1.9020     0.3680    -4.7080 os         1 GR3      -0.403900
     34 C37         -3.0520     0.5590    -5.3300 c          1 GR3       0.658100
     35 C38         -3.8010     1.7170    -4.7360 c3         1 GR3      -0.157100
     36 O39         -3.4540    -0.1190    -6.2450 o          1 GR3      -0.576000
     37 C20          0.6920     0.7480     4.1680 c3         1 GR3      -0.164700
     38 C21          1.5780     0.9200     5.3760 c          1 GR3       0.606900
     39 H11         -1.3560    -2.6610    -2.3390 hc         1 GR3       0.027700
     40 H12         -1.7940    -0.9750    -2.4930 hc         1 GR3       0.027700
     41 H21A        -0.7010    -2.7520    -4.7350 hc         1 GR3       0.037200
     42 H22         -2.3560    -2.2480    -4.5440 hc         1 GR3       0.037200
     43 H3          -1.1650    -0.8540    -6.2080 h1         1 GR3       0.082700
     44 H5           0.1780     0.7360    -3.0340 hc         1 GR3       0.076700
     45 H61          2.4620     1.1900    -3.6140 hc         1 GR3       0.062700
     46 H62          2.8940    -0.4960    -3.6140 hc         1 GR3       0.062700
     47 H7           3.5010     0.7000    -1.4070 ha         1 GR3       0.103000
     48 H9          -0.3660     0.0450    -1.0670 hc         1 GR3       0.055700
     49 H111        -1.1010    -2.0880    -0.2220 hc         1 GR3       0.035200
     50 H112         0.5320    -2.6480    -0.0220 hc         1 GR3       0.035200
     51 H121        -1.0970    -0.8610     1.6960 hc         1 GR3       0.026200
     52 H122         0.1690    -1.9730     2.1390 hc         1 GR3       0.026200
     53 H151         2.7980     1.8870     0.7220 hc         1 GR3       0.054200
     54 H152         4.1050     0.7490     0.9870 hc         1 GR3       0.054200
     55 H16          2.5950     2.0780     2.9900 h1         1 GR3       0.040700
     56 H17          1.8970    -0.8150     3.3470 hc         1 GR3       0.062700
     57 H181        -0.7760     1.3940     1.8820 hc         1 GR3       0.037700
     58 H182         0.7390     2.2160     1.5760 hc         1 GR3       0.037700
     59 H183        -0.1130     1.4330     0.2620 hc         1 GR3       0.037700
     60 H191         2.2830    -2.3140    -2.3520 hc         1 GR3       0.024367
     61 H192         0.9040    -3.3440    -2.0040 hc         1 GR3       0.024367
     62 H193         1.2850    -2.9380    -3.6550 hc         1 GR3       0.024367
     63 H221        -0.1180    -1.2120     4.6360 hc         1 GR3       0.069700
     64 H222        -1.1640    -0.2330     3.6560 hc         1 GR3       0.069700
     65 H24         -2.6200    -1.3860     5.2000 ha         1 GR3       0.128000
     66 H261        -5.4580    -0.9370     6.9810 hc         1 GR3       0.050867
     67 H262        -4.5120    -2.1720     6.1340 hc         1 GR3       0.050867
     68 H263        -4.4960    -2.0710     7.9010 hc         1 GR3       0.050867
     69 H271        -2.4760     1.0930     8.0830 hc         1 GR3       0.050867
     70 H272        -4.2440     1.0570     8.0370 hc         1 GR3       0.050867
     71 H273        -3.3860    -0.0950     9.0290 hc         1 GR3       0.050867
     72 H281         3.6510    -1.6380     0.2660 hc         1 GR3       0.033700
     73 H282         3.3370    -1.5260     1.9860 hc         1 GR3       0.033700
     74 H283         2.2200    -2.3910     0.9460 hc         1 GR3       0.033700
     75 H301         1.0510    -1.0990    -6.7800 hc         1 GR3       0.021367
     76 H302         2.3870    -0.6580    -5.7330 hc         1 GR3       0.021367
     77 H303         1.4240    -2.0750    -5.3700 hc         1 GR3       0.021367
     78 HO3          4.5980     1.1630     3.4540 ho         1 GR3       0.404000
     79 H381        -4.6780     1.9540    -5.3320 hc         1 GR3       0.058367
     80 H382        -4.1260     1.4690    -3.7240 hc         1 GR3       0.058367
     81 H383        -3.1640     2.5980    -4.6630 hc         1 GR3       0.058367
     82 H20          0.3170     1.7360     3.8860 hc         1 GR3       0.082700
     83 H21          1.8080    -0.0270     5.9040 h4         1 GR3      -0.024800
     84 O33          2.0620     1.9620     5.7430 o          1 GR3      -0.522100
@<TRIPOS>BOND
     1     1     2 1   
     2     1    10 1   
     3     1    39 1   
     4     1    40 1   
     5     2     3 1   
     6     2    41 1   
     7     2    42 1   
     8     3     4 1   
     9     3    33 1   
    10     3    43 1   
    11     4     5 1   
    12     4    27 1   
    13     4    28 1   
    14     5     6 1   
    15     5    10 1   
    16     5    44 1   
    17     6     7 1   
    18     6    45 1   
    19     6    46 1   
    20     7     8 2   
    21     7    47 1   
    22     8     9 1   
    23     8    14 1   
    24     9    10 1   
    25     9    11 1   
    26     9    48 1   
    27    10    19 1   
    28    11    12 1   
    29    11    49 1   
    30    11    50 1   
    31    12    13 1   
    32    12    51 1   
    33    12    52 1   
    34    13    14 1   
    35    13    17 1   
    36    13    18 1   
    37    14    15 1   
    38    14    26 1   
    39    15    16 1   
    40    15    53 1   
    41    15    54 1   
    42    16    17 1   
    43    16    30 1   
    44    16    55 1   
    45    17    37 1   
    46    17    56 1   
    47    18    57 1   
    48    18    58 1   
    49    18    59 1   
    50    19    60 1   
    51    19    61 1   
    52    19    62 1   
    53    20    21 1   
    54    20    37 1   
    55    20    63 1   
    56    20    64 1   
    57    21    22 1   
    58    21    32 2   
    59    22    23 2   
    60    22    65 1   
    61    23    24 1   
    62    23    25 1   
    63    24    66 1   
    64    24    67 1   
    65    24    68 1   
    66    25    69 1   
    67    25    70 1   
    68    25    71 1   
    69    26    72 1   
    70    26    73 1   
    71    26    74 1   
    72    27    29 1   
    73    27    31 1   
    74    28    75 1   
    75    28    76 1   
    76    28    77 1   
    77    30    78 1   
    78    33    34 1   
    79    34    35 1   
    80    34    36 2   
    81    35    79 1   
    82    35    80 1   
    83    35    81 1   
    84    37    38 1   
    85    37    82 1   
    86    38    83 1   
    87    38    84 2   
@<TRIPOS>SUBSTRUCTURE
     1 GR3         1 TEMP              0 ****  ****    0 ROOT
