@<TRIPOS>MOLECULE
GR4
  108   112     1     0     0
SMALL
bcc


@<TRIPOS>ATOM
      1 C1           1.9220     2.1320    -0.4230 c6         1 GR4      -0.068400
      2 C2           2.2500     2.5920    -1.8320 c6         1 GR4      -0.091400
      3 C3           1.6910     1.6600    -2.8840 c6         1 GR4       0.161100
      4 C4           0.1690     1.4380    -2.7500 c6         1 GR4      -0.080000
      5 C5          -0.2390     1.1350    -1.2830 c6         1 GR4      -0.039700
      6 C6          -1.7530     1.0990    -1.0840 c6         1 GR4      -0.043200
      7 C7          -2.1330     0.8410     0.3390 c2         1 GR4      -0.137200
      8 C8          -1.2860     0.9070     1.3610 c2         1 GR4      -0.108400
      9 C9           0.1870     1.1990     1.1380 c6         1 GR4      -0.011500
     10 C10          0.4160     2.0050    -0.1680 c6         1 GR4      -0.025000
     11 C11          0.8240     1.8020     2.3900 c6         1 GR4      -0.100400
     12 C12          0.6260     0.9680     3.6800 c6         1 GR4       0.162100
     13 C13         -0.6290     0.0630     3.6400 c5         1 GR4      -0.024000
     14 C14         -1.7370     0.7710     2.7940 c5         1 GR4       0.005200
     15 C15         -2.9600    -0.1100     3.0600 c5         1 GR4      -0.101400
     16 C16         -2.8110    -0.5590     4.5280 c5         1 GR4       0.134100
     17 C17         -1.3860    -0.1660     4.9800 c5         1 GR4      -0.050700
     18 C18         -0.2970    -1.3170     3.0410 c3         1 GR4      -0.077100
     19 C19         -0.1980     3.4010    -0.0220 c3         1 GR4      -0.087100
     20 C22          0.4680    -0.6210     6.6460 c3         1 GR4      -0.185400
     21 C23          1.0030    -1.4360     7.7960 c          1 GR4       0.578300
     22 C24          2.3230    -1.0020     8.2750 ce         1 GR4      -0.285200
     23 C25          3.0320    -1.4680     9.3190 c2         1 GR4      -0.010400
     24 C26          4.3700    -0.8700     9.6270 c3         1 GR4      -0.077900
     25 C27          2.6220    -2.5570    10.2570 c3         1 GR4      -0.077900
     26 C28         -2.0920     2.1800     3.3470 c3         1 GR4       0.139400
     27 C29         -0.1430     0.2120    -3.6160 c          1 GR4       0.659100
     28 C30         -0.5640     2.6390    -3.3730 c3         1 GR4      -0.086100
     29 O31         -0.6330    -0.8200    -3.2520 o          1 GR4      -0.500000
     30 O32         -3.7280     0.0400     5.4220 oh         1 GR4      -0.605800
     31 O34          0.2230     0.4310    -4.8890 os         1 GR4      -0.431900
     32 O35          0.3560    -2.3580     8.2620 o          1 GR4      -0.533100
     33 O36          2.2890     0.3550    -2.7560 os         1 GR4      -0.432900
     34 C37          3.3890     0.0730    -3.4460 c          1 GR4       0.652100
     35 C38          3.7730    -1.3690    -3.3100 c3         1 GR4      -0.158100
     36 O39          3.9770     0.8790    -4.1250 o          1 GR4      -0.555000
     37 O1          -3.0520     2.7710     2.5000 oh         1 GR4      -0.596800
     38 O2           1.7720     0.1690     3.9150 oh         1 GR4      -0.599800
     39 O3          -1.3050    -0.4370    -6.2790 os         1 GR4      -0.407600
     40 C32          0.0110    -0.5710    -5.8500 c6         1 GR4       0.325900
     41 C33          0.9850    -0.3220    -6.9970 c6         1 GR4       0.087100
     42 C34          0.6610    -1.3050    -8.1160 c6         1 GR4       0.110100
     43 C35         -0.8120    -1.2140    -8.4990 c6         1 GR4       0.119100
     44 C36         -1.6790    -1.3950    -7.2520 c6         1 GR4       0.158100
     45 O4          -1.1640    -2.2080    -9.4260 oh         1 GR4      -0.593800
     46 O5           1.4160    -1.0490    -9.2740 oh         1 GR4      -0.603800
     47 O6           2.3140    -0.5380    -6.5920 oh         1 GR4      -0.604800
     48 C31         -3.1500    -1.1960    -7.5500 c3         1 GR4       0.149400
     49 O7          -3.8890    -1.4640    -6.3840 oh         1 GR4      -0.583800
     50 C20         -0.8060    -1.1660     6.0080 c3         1 GR4      -0.161700
     51 C21         -1.8410    -1.4030     7.0830 c          1 GR4       0.603900
     52 H11          2.3600     2.8410     0.2830 hc         1 GR4       0.045700
     53 H12A         2.4100     1.1720    -0.2280 hc         1 GR4       0.045700
     54 H21A         1.8540     3.5940    -2.0180 hc         1 GR4       0.056200
     55 H22          3.3310     2.6770    -1.9660 hc         1 GR4       0.056200
     56 H3           1.9110     2.0550    -3.8770 h1         1 GR4       0.075700
     57 H5           0.1260     0.1200    -1.0890 hc         1 GR4       0.073700
     58 H61         -2.2070     0.3430    -1.7260 hc         1 GR4       0.058200
     59 H62         -2.2080     2.0480    -1.3900 hc         1 GR4       0.058200
     60 H7          -3.1840     0.6420     0.5220 ha         1 GR4       0.130000
     61 H9           0.7000     0.2420     0.9760 hc         1 GR4       0.062700
     62 H111         1.8990     1.9150     2.2320 hc         1 GR4       0.043700
     63 H112         0.4510     2.8140     2.5540 hc         1 GR4       0.043700
     64 H12          0.5000     1.6760     4.5110 h1         1 GR4       0.023700
     65 H151        -2.9670    -0.9760     2.3970 hc         1 GR4       0.061700
     66 H152        -3.9020     0.4150     2.8970 hc         1 GR4       0.061700
     67 H16         -2.9190    -1.6500     4.5750 h1         1 GR4       0.050700
     68 H17         -1.4560     0.7940     5.5040 hc         1 GR4       0.058700
     69 H181         0.4840    -1.8130     3.6130 hc         1 GR4       0.043367
     70 H182        -1.1630    -1.9760     3.0580 hc         1 GR4       0.043367
     71 H183         0.0440    -1.2670     2.0100 hc         1 GR4       0.043367
     72 H191        -1.2480     3.3580     0.2680 hc         1 GR4       0.037033
     73 H192         0.3270     3.9610     0.7550 hc         1 GR4       0.037033
     74 H193        -0.1250     4.0020    -0.9260 hc         1 GR4       0.037033
     75 H221         0.3070     0.4010     7.0160 hc         1 GR4       0.073700
     76 H222         1.2490    -0.5250     5.8910 hc         1 GR4       0.073700
     77 H24          2.7610    -0.1930     7.6980 ha         1 GR4       0.124000
     78 H261         4.3840    -0.4800    10.6470 hc         1 GR4       0.052867
     79 H262         5.1460    -1.6360     9.5790 hc         1 GR4       0.052867
     80 H263         4.6370    -0.0640     8.9450 hc         1 GR4       0.052867
     81 H271         1.6570    -2.9920    10.0310 hc         1 GR4       0.052867
     82 H272         3.3760    -3.3480    10.2500 hc         1 GR4       0.052867
     83 H273         2.6040    -2.1660    11.2770 hc         1 GR4       0.052867
     84 H281        -2.4980     2.0850     4.3580 h1         1 GR4       0.025200
     85 H282        -1.2120     2.8210     3.4260 h1         1 GR4       0.025200
     86 H301        -0.1420     2.9000    -4.3430 hc         1 GR4       0.049367
     87 H302        -1.6230     2.4310    -3.5220 hc         1 GR4       0.049367
     88 H303        -0.4990     3.5190    -2.7400 hc         1 GR4       0.049367
     89 HO3         -4.5980    -0.3400     5.2620 ho         1 GR4       0.412000
     90 H381         4.8270    -1.5040    -3.5340 hc         1 GR4       0.073367
     91 H382         3.5520    -1.7610    -2.3190 hc         1 GR4       0.073367
     92 H383         3.1980    -1.9500    -4.0340 hc         1 GR4       0.073367
     93 HO1         -3.4150     3.5300     2.9650 ho         1 GR4       0.401000
     94 HO2          2.5190     0.7600     4.0510 ho         1 GR4       0.400000
     95 H32          0.1900    -1.5690    -5.4210 h2         1 GR4       0.064700
     96 H33          0.8340     0.7010    -7.3690 h1         1 GR4       0.067700
     97 H34          0.8520    -2.3250    -7.7440 h1         1 GR4       0.055700
     98 H35         -1.0020    -0.2070    -8.9050 h1         1 GR4       0.053700
     99 H36         -1.5260    -2.4130    -6.8600 h1         1 GR4       0.067700
    100 HO4         -0.6180    -2.0940   -10.2110 ho         1 GR4       0.427000
    101 HO5          2.3380    -1.2580    -9.0920 ho         1 GR4       0.427000
    102 HO6          2.6860     0.2870    -6.2690 ho         1 GR4       0.432000
    103 H311        -3.3030    -0.1680    -7.9050 h1         1 GR4       0.035700
    104 H312        -3.4280    -1.8650    -8.3700 h1         1 GR4       0.035700
    105 HO7         -4.8220    -1.4090    -6.6060 ho         1 GR4       0.405000
    106 H20         -0.6070    -2.1260     5.5240 hc         1 GR4       0.084700
    107 H21         -1.9170    -0.5840     7.8250 h4         1 GR4      -0.018800
    108 O33         -2.5710    -2.3610     7.1480 o          1 GR4      -0.517100
@<TRIPOS>BOND
     1     1     2 1   
     2     1    10 1   
     3     1    52 1   
     4     1    53 1   
     5     2     3 1   
     6     2    54 1   
     7     2    55 1   
     8     3     4 1   
     9     3    33 1   
    10     3    56 1   
    11     4     5 1   
    12     4    27 1   
    13     4    28 1   
    14     5     6 1   
    15     5    10 1   
    16     5    57 1   
    17     6     7 1   
    18     6    58 1   
    19     6    59 1   
    20     7     8 2   
    21     7    60 1   
    22     8     9 1   
    23     8    14 1   
    24     9    10 1   
    25     9    11 1   
    26     9    61 1   
    27    10    19 1   
    28    11    12 1   
    29    11    62 1   
    30    11    63 1   
    31    12    13 1   
    32    12    38 1   
    33    12    64 1   
    34    13    14 1   
    35    13    17 1   
    36    13    18 1   
    37    14    15 1   
    38    14    26 1   
    39    15    16 1   
    40    15    65 1   
    41    15    66 1   
    42    16    17 1   
    43    16    30 1   
    44    16    67 1   
    45    17    50 1   
    46    17    68 1   
    47    18    69 1   
    48    18    70 1   
    49    18    71 1   
    50    19    72 1   
    51    19    73 1   
    52    19    74 1   
    53    20    21 1   
    54    20    50 1   
    55    20    75 1   
    56    20    76 1   
    57    21    22 1   
    58    21    32 2   
    59    22    23 2   
    60    22    77 1   
    61    23    24 1   
    62    23    25 1   
    63    24    78 1   
    64    24    79 1   
    65    24    80 1   
    66    25    81 1   
    67    25    82 1   
    68    25    83 1   
    69    26    37 1   
    70    26    84 1   
    71    26    85 1   
    72    27    29 2   
    73    27    31 1   
    74    28    86 1   
    75    28    87 1   
    76    28    88 1   
    77    30    89 1   
    78    31    40 1   
    79    33    34 1   
    80    34    35 1   
    81    34    36 2   
    82    35    90 1   
    83    35    91 1   
    84    35    92 1   
    85    37    93 1   
    86    38    94 1   
    87    39    40 1   
    88    39    44 1   
    89    40    41 1   
    90    40    95 1   
    91    41    42 1   
    92    41    47 1   
    93    41    96 1   
    94    42    43 1   
    95    42    46 1   
    96    42    97 1   
    97    43    44 1   
    98    43    45 1   
    99    43    98 1   
   100    44    48 1   
   101    44    99 1   
   102    45   100 1   
   103    46   101 1   
   104    47   102 1   
   105    48    49 1   
   106    48   103 1   
   107    48   104 1   
   108    49   105 1   
   109    50    51 1   
   110    50   106 1   
   111    51   107 1   
   112    51   108 2   
@<TRIPOS>SUBSTRUCTURE
     1 GR4         1 TEMP              0 ****  ****    0 ROOT
