@<TRIPOS>MOLECULE
GR4
  108   112     1     0     0
SMALL
No Charge or Current Charge


@<TRIPOS>ATOM
      1 C1           0.8200     3.3010    -0.4090 c6         1 GR4      -0.068400
      2 C2           0.8270     4.0800    -1.7480 c6         1 GR4      -0.091400
      3 C3           0.4450     3.1690    -2.9500 c6         1 GR4       0.184300
      4 C4          -1.0000     2.5710    -2.8210 c6         1 GR4      -0.080000
      5 C5          -1.0500     1.8250    -1.3760 c6         1 GR4      -0.039700
      6 C6          -2.4230     1.1570    -1.0910 c6         1 GR4      -0.043200
      7 C7          -2.5360     0.5730     0.3130 c2         1 GR4      -0.187200
      8 C8          -1.6560     0.7760     1.3200 c2         1 GR4      -0.108400
      9 C9          -0.3780     1.6230     1.1370 c6         1 GR4      -0.011500
     10 C10         -0.5660     2.6640    -0.0700 c6         1 GR4      -0.025000
     11 C11          0.1520     2.2000     2.4890 c6         1 GR4      -0.100400
     12 C12          0.2700     1.1470     3.6450 c6         1 GR4       0.185300
     13 C13         -0.6210    -0.1530     3.4360 c5         1 GR4      -0.024000
     14 C14         -2.0020     0.2740     2.7500 c5         1 GR4       0.005200
     15 C15         -2.7370    -1.1070     2.7580 c5         1 GR4      -0.101400
     16 C16         -2.3760    -1.7250     4.1550 c5         1 GR4       0.157300
     17 C17         -1.2210    -0.8190     4.7530 c5         1 GR4      -0.050700
     18 C18          0.2120    -1.2460     2.6290 c3         1 GR4      -0.077100
     19 C19         -1.5580     3.8140     0.4100 c3         1 GR4      -0.087100
     20 C22          0.5370    -0.6550     6.7100 c3         1 GR4      -0.185400
     21 C23          1.7290    -1.3900     7.3380 c          1 GR4       0.578300
     22 C24          3.0210    -1.3330     6.5860 ce         1 GR4      -0.335200
     23 C25          4.2080    -1.8810     6.9480 c2         1 GR4      -0.010400
     24 C26          5.4490    -1.7570     6.0820 c3         1 GR4      -0.077900
     25 C27          4.4650    -2.6760     8.2190 c3         1 GR4      -0.077900
     26 C28         -2.8780     1.3590     3.5060 c3         1 GR4       0.162600
     27 C29         -1.1620     1.5370    -4.0130 c          1 GR4       0.610100
     28 C30         -2.0730     3.7230    -3.0760 c3         1 GR4      -0.086100
     29 O31         -1.9130     1.7240    -4.9630 o          1 GR4      -0.451000
     30 O32         -3.5080    -1.7630     5.0230 oh         1 GR4      -0.668000
     31 O34         -0.6140     0.3100    -3.7520 os         1 GR4      -0.455100
     32 O35          1.5900    -2.0050     8.3850 o          1 GR4      -0.533100
     33 O36          1.4240     2.1190    -3.1010 os         1 GR4      -0.456100
     34 C37          2.6530     2.3570    -3.6490 c          1 GR4       0.603100
     35 C38          3.4970     1.0920    -3.6830 c3         1 GR4      -0.158100
     36 O39          3.0300     3.4400    -4.0740 o          1 GR4      -0.506000
     37 O1          -4.0550     1.7150     2.7640 oh         1 GR4      -0.659000
     38 O2           1.6600     0.8560     3.8500 oh         1 GR4      -0.662000
     39 O3           0.2670    -0.3400    -5.8150 os         1 GR4      -0.454000
     40 C32         -0.6340    -0.7120    -4.7530 c6         1 GR4       0.372300
     41 C33         -0.1680    -2.0700    -4.1350 c6         1 GR4       0.110300
     42 C34         -0.1590    -3.1450    -5.2570 c6         1 GR4       0.133300
     43 C35          0.7470    -2.6810    -6.4370 c6         1 GR4       0.142300
     44 C36          0.2810    -1.2720    -6.9300 c6         1 GR4       0.181300
     45 O4           0.7160    -3.6660    -7.4860 oh         1 GR4      -0.716000
     46 O5           0.2910    -4.4060    -4.7320 oh         1 GR4      -0.666000
     47 O6          -0.9980    -2.4990    -3.0280 oh         1 GR4      -0.727000
     48 C31          1.2130    -0.6940    -8.0460 c3         1 GR4       0.172600
     49 O7           0.8320     0.6270    -8.4850 oh         1 GR4      -0.706000
     50 C20         -0.2620    -1.5850     5.7420 c3         1 GR4      -0.161700
     51 C21         -1.0400    -2.6240     6.5810 c          1 GR4       0.603900
     52 H11          1.1320     3.9790     0.3960 hc         1 GR4       0.045700
     53 H12A         1.5920     2.5190    -0.4530 hc         1 GR4       0.045700
     54 H21A         0.1570     4.9460    -1.6920 hc         1 GR4       0.056200
     55 H22          1.8260     4.5050    -1.9090 hc         1 GR4       0.056200
     56 H3           0.4660     3.7770    -3.8680 h1         1 GR4       0.075700
     57 H5          -0.3310     0.9970    -1.4340 hc         1 GR4       0.073700
     58 H61         -2.6130     0.3650    -1.8270 hc         1 GR4       0.058200
     59 H62         -3.2320     1.8880    -1.2160 hc         1 GR4       0.058200
     60 H7          -3.4610     0.0280     0.4960 ha         1 GR4       0.180000
     61 H9           0.4080     0.9420     0.7930 hc         1 GR4       0.062700
     62 H111         1.1230     2.6870     2.3280 hc         1 GR4       0.043700
     63 H112        -0.5030     3.0050     2.8360 hc         1 GR4       0.043700
     64 H12         -0.1050     1.6530     4.5470 h1         1 GR4       0.023700
     65 H151        -2.3990    -1.7580     1.9440 hc         1 GR4       0.061700
     66 H152        -3.8190    -1.0050     2.6180 hc         1 GR4       0.061700
     67 H16         -2.0110    -2.7500     3.9950 h1         1 GR4       0.050700
     68 H17         -1.6600    -0.0480     5.3940 hc         1 GR4       0.058700
     69 H181         1.1780    -1.4590     3.0990 hc         1 GR4       0.043367
     70 H182        -0.2860    -2.2180     2.5740 hc         1 GR4       0.043367
     71 H183         0.4270    -0.9720     1.5960 hc         1 GR4       0.043367
     72 H191        -2.5330     3.4130     0.7100 hc         1 GR4       0.037033
     73 H192        -1.1580     4.3680     1.2650 hc         1 GR4       0.037033
     74 H193        -1.7420     4.5700    -0.3510 hc         1 GR4       0.037033
     75 H221        -0.1280    -0.2880     7.5010 hc         1 GR4       0.073700
     76 H222         0.9250     0.1900     6.1420 hc         1 GR4       0.073700
     77 H24          2.9630    -0.7840     5.6480 ha         1 GR4       0.174000
     78 H261         6.2520    -1.2340     6.6150 hc         1 GR4       0.052867
     79 H262         5.8260    -2.7450     5.7890 hc         1 GR4       0.052867
     80 H263         5.2480    -1.1970     5.1600 hc         1 GR4       0.052867
     81 H271         4.1970    -2.0940     9.1080 hc         1 GR4       0.052867
     82 H272         3.8760    -3.6000     8.2290 hc         1 GR4       0.052867
     83 H273         5.5190    -2.9610     8.3270 hc         1 GR4       0.052867
     84 H281        -3.1970     0.9820     4.4840 h1         1 GR4       0.025200
     85 H282        -2.2860     2.2590     3.6990 h1         1 GR4       0.025200
     86 H301        -1.9730     4.1400    -4.0850 hc         1 GR4       0.049367
     87 H302        -3.1000     3.3490    -2.9860 hc         1 GR4       0.049367
     88 H303        -1.9730     4.5760    -2.4060 hc         1 GR4       0.049367
     89 HO3         -4.2090    -2.2710     4.5590 ho         1 GR4       0.451000
     90 H381         4.4870     1.2560    -4.1230 hc         1 GR4       0.073367
     91 H382         3.5600     0.6830    -2.6690 hc         1 GR4       0.073367
     92 H383         2.9380     0.3130    -4.2130 hc         1 GR4       0.073367
     93 HO1         -4.5330     2.3910     3.2920 ho         1 GR4       0.440000
     94 HO2          2.1130     1.7180     3.9580 ho         1 GR4       0.439000
     95 H32         -1.6560    -0.8230    -5.1480 h2         1 GR4       0.064700
     96 H33          0.8670    -1.9300    -3.7870 h1         1 GR4       0.067700
     97 H34         -1.1880    -3.2480    -5.6330 h1         1 GR4       0.055700
     98 H35          1.7760    -2.5810    -6.0570 h1         1 GR4       0.053700
     99 H36         -0.7360    -1.3480    -7.3410 h1         1 GR4       0.067700
    100 HO4          0.7320    -4.5360    -7.0160 ho         1 GR4       0.526000
    101 HO5         -0.1020    -4.4510    -3.8290 ho         1 GR4       0.466000
    102 HO6         -1.0280    -1.7440    -2.3930 ho         1 GR4       0.531000
    103 H311         2.2410    -0.6800    -7.6580 h1         1 GR4       0.035700
    104 H312         1.1980    -1.3880    -8.8980 h1         1 GR4       0.035700
    105 HO7          1.5050     0.9160    -9.1450 ho         1 GR4       0.504000
    106 H20          0.4590    -2.1650     5.1560 hc         1 GR4       0.084700
    107 H21         -1.8090    -2.2090     7.2700 h4         1 GR4      -0.018800
    108 O33         -0.8310    -3.8310     6.5200 o          1 GR4      -0.517100
@<TRIPOS>BOND
     1     1     2 1   
     2     1    10 1   
     3     1    52 1   
     4     1    53 1   
     5     2     3 1   
     6     2    54 1   
     7     2    55 1   
     8     3     4 1   
     9     3    33 1   
    10     3    56 1   
    11     4     5 1   
    12     4    27 1   
    13     4    28 1   
    14     5     6 1   
    15     5    10 1   
    16     5    57 1   
    17     6     7 1   
    18     6    58 1   
    19     6    59 1   
    20     7     8 2   
    21     7    60 1   
    22     8     9 1   
    23     8    14 1   
    24     9    10 1   
    25     9    11 1   
    26     9    61 1   
    27    10    19 1   
    28    11    12 1   
    29    11    62 1   
    30    11    63 1   
    31    12    13 1   
    32    12    38 1   
    33    12    64 1   
    34    13    14 1   
    35    13    17 1   
    36    13    18 1   
    37    14    15 1   
    38    14    26 1   
    39    15    16 1   
    40    15    65 1   
    41    15    66 1   
    42    16    17 1   
    43    16    30 1   
    44    16    67 1   
    45    17    50 1   
    46    17    68 1   
    47    18    69 1   
    48    18    70 1   
    49    18    71 1   
    50    19    72 1   
    51    19    73 1   
    52    19    74 1   
    53    20    21 1   
    54    20    50 1   
    55    20    75 1   
    56    20    76 1   
    57    21    22 1   
    58    21    32 2   
    59    22    23 2   
    60    22    77 1   
    61    23    24 1   
    62    23    25 1   
    63    24    78 1   
    64    24    79 1   
    65    24    80 1   
    66    25    81 1   
    67    25    82 1   
    68    25    83 1   
    69    26    37 1   
    70    26    84 1   
    71    26    85 1   
    72    27    29 2   
    73    27    31 1   
    74    28    86 1   
    75    28    87 1   
    76    28    88 1   
    77    30    89 1   
    78    31    40 1   
    79    33    34 1   
    80    34    35 1   
    81    34    36 2   
    82    35    90 1   
    83    35    91 1   
    84    35    92 1   
    85    37    93 1   
    86    38    94 1   
    87    39    40 1   
    88    39    44 1   
    89    40    41 1   
    90    40    95 1   
    91    41    42 1   
    92    41    47 1   
    93    41    96 1   
    94    42    43 1   
    95    42    46 1   
    96    42    97 1   
    97    43    44 1   
    98    43    45 1   
    99    43    98 1   
   100    44    48 1   
   101    44    99 1   
   102    45   100 1   
   103    46   101 1   
   104    47   102 1   
   105    48    49 1   
   106    48   103 1   
   107    48   104 1   
   108    49   105 1   
   109    50    51 1   
   110    50   106 1   
   111    51   107 1   
   112    51   108 2   
@<TRIPOS>SUBSTRUCTURE
     1 GR4         1 TEMP              0 ****  ****    0 ROOT
