@<TRIPOS>MOLECULE
GR5
   91    97     1     0     0
SMALL
bcc


@<TRIPOS>ATOM
      1 S51         -8.1250     1.0620    -0.3600 ss         1 GR5      -0.160100
      2 N52         -7.4380    -1.3390    -1.1100 nc         1 GR5      -0.639100
      3 C53         -8.4680    -0.6130    -0.8030 cd         1 GR5       0.672100
      4 N54         -9.7320    -1.0420    -0.8140 nu         1 GR5      -0.800200
      5 C55        -10.0650    -2.3960    -1.1180 cx         1 GR5       0.162500
      6 C56        -11.3280    -2.6360    -1.8780 cx         1 GR5      -0.127400
      7 C57        -10.0020    -2.8490    -2.5410 cx         1 GR5      -0.127400
      8 C2          -6.2870    -0.6120    -1.0170 ca         1 GR5       0.200400
      9 C3          -6.4380     0.7300    -0.6170 ca         1 GR5      -0.098100
     10 C4          -5.3660     1.5870    -0.4730 ca         1 GR5       0.031000
     11 C5          -4.1020     1.0760    -0.7370 ca         1 GR5      -0.311500
     12 C6          -3.9200    -0.2440    -1.1530 ca         1 GR5      -0.030000
     13 C7          -5.0040    -1.0890    -1.2890 ca         1 GR5      -0.125000
     14 S8          -2.6870     2.1030    -0.4820 sy         1 GR5       1.335200
     15 O9          -1.6830     1.6830    -1.4500 o          1 GR5      -0.610800
     16 O10         -3.1450     3.4850    -0.4730 o          1 GR5      -0.610800
     17 N11         -2.0960     1.7540     1.0090 n3         1 GR5      -0.789500
     18 C12         -2.4730     2.5280     2.1920 c3         1 GR5       0.229800
     19 C13         -3.1900     1.7410     3.2890 c3         1 GR5      -0.080700
     20 C14         -3.4460     2.6860     4.4590 c3         1 GR5      -0.091100
     21 C15         -4.4830     1.1030     2.8050 c3         1 GR5      -0.091100
     22 C16         -1.1440     0.6620     1.1420 c3         1 GR5       0.202800
     23 C17          0.3120     1.1090     1.0130 c3         1 GR5       0.116100
     24 O18          0.7360     1.8890     2.1090 oh         1 GR5      -0.586800
     25 C19          1.2500    -0.0760     0.7510 c3         1 GR5       0.094700
     26 N20          2.5910     0.4240     0.5650 ns         1 GR5      -0.552900
     27 C21          3.4470    -0.1010    -0.3380 c          1 GR5       0.759100
     28 O22          3.1420    -0.8370    -1.2520 o          1 GR5      -0.582000
     29 O23          4.6900     0.3280    -0.0960 os         1 GR5      -0.435900
     30 C32          1.2130    -1.1480     1.8580 c3         1 GR5      -0.067100
     31 C33          3.4870    -2.1980     2.0000 ca         1 GR5      -0.181000
     32 C34          4.3760    -3.1790     1.6080 ca         1 GR5       0.169900
     33 C35          4.0150    -4.2390     0.8000 ca         1 GR5      -0.212000
     34 C36          2.6960    -4.2790     0.3870 ca         1 GR5       0.169900
     35 C37          1.7700    -3.3200     0.7410 ca         1 GR5      -0.181000
     36 C38          2.1710    -2.2620     1.5510 ca         1 GR5      -0.030300
     37 F62          2.3080    -5.2960    -0.3950 f          1 GR5      -0.138400
     38 C24          5.7420    -0.1290    -0.9360 c5         1 GR5       0.171100
     39 C25          7.0860     0.0670    -0.2300 c5         1 GR5      -0.050700
     40 C26          8.0710    -0.0960    -1.4030 c5         1 GR5      -0.134700
     41 C27          9.3060     0.8180    -1.4590 c5         1 GR5       0.344900
     42 O28          9.4510     1.1570    -2.7980 os         1 GR5      -0.386600
     43 C29          8.1500     1.3380    -3.3470 c5         1 GR5       0.134400
     44 C30          7.2920     0.2530    -2.7000 c5         1 GR5      -0.097700
     45 C31          5.8840     0.6350    -2.2500 c5         1 GR5      -0.094400
     46 C41          7.2040     1.4130     0.4870 c6         1 GR5      -0.102400
     47 C42          8.6540     1.8320     0.5650 c6         1 GR5       0.144400
     48 O43          9.1650     2.0140    -0.7390 os         1 GR5      -0.430600
     49 H1         -10.4560    -0.4420    -0.4510 hn         1 GR5       0.455800
     50 H2          -9.7970    -3.1190    -0.3530 h1         1 GR5       0.092700
     51 H3         -11.9180    -3.4990    -1.6000 hc         1 GR5       0.081450
     52 H4         -11.9060    -1.7700    -2.1760 hc         1 GR5       0.081450
     53 H5          -9.6870    -2.1230    -3.2790 hc         1 GR5       0.081450
     54 H6          -9.6710    -3.8610    -2.7310 hc         1 GR5       0.081450
     55 H7          -5.5110     2.6130    -0.1640 ha         1 GR5       0.163000
     56 H8          -2.9320    -0.6180    -1.3870 ha         1 GR5       0.149000
     57 H9          -4.8650    -2.1120    -1.6130 ha         1 GR5       0.153000
     58 H10         -1.5700     2.9830     2.6040 h1         1 GR5       0.067700
     59 H11         -3.1090     3.3540     1.8770 h1         1 GR5       0.067700
     60 H12         -2.5320     0.9450     3.6530 hc         1 GR5       0.041700
     61 H13         -4.0990     3.5110     4.1640 hc         1 GR5       0.037367
     62 H14         -3.9300     2.1610     5.2830 hc         1 GR5       0.037367
     63 H15         -2.5180     3.1170     4.8390 hc         1 GR5       0.037367
     64 H16         -5.1700     1.8550     2.4120 hc         1 GR5       0.037367
     65 H17         -4.3130     0.3660     2.0190 hc         1 GR5       0.037367
     66 H18         -4.9900     0.5920     3.6250 hc         1 GR5       0.037367
     67 H19         -1.3210     0.1920     2.1130 h1         1 GR5       0.054200
     68 H20         -1.3520    -0.1170     0.4070 h1         1 GR5       0.054200
     69 H21          0.3900     1.7620     0.1420 h1         1 GR5       0.114700
     70 H22          0.5570     1.4170     2.9290 ho         1 GR5       0.395000
     71 H23          0.9370    -0.5340    -0.1890 h1         1 GR5       0.099700
     72 H24          2.9820     0.9670     1.3210 hn         1 GR5       0.328500
     73 H25          1.4740    -0.7020     2.8220 hc         1 GR5       0.053700
     74 H26          0.2000    -1.5460     1.9480 hc         1 GR5       0.053700
     75 H27          3.8190    -1.3890     2.6380 ha         1 GR5       0.152000
     76 H28          4.7270    -5.0000     0.5070 ha         1 GR5       0.169000
     77 H29          0.7520    -3.3860     0.3780 ha         1 GR5       0.152000
     78 H30          5.6050    -1.1940    -1.1490 h1         1 GR5       0.065700
     79 H31          7.2480    -0.7250     0.5050 hc         1 GR5       0.061700
     80 H32          8.4190    -1.1290    -1.4420 hc         1 GR5       0.066700
     81 H33         10.2200     0.3010    -1.1390 h2         1 GR5       0.071700
     82 H34          7.7630     2.3380    -3.1190 h1         1 GR5       0.057200
     83 H35          8.2290     1.2440    -4.4300 h1         1 GR5       0.057200
     84 H36          7.2490    -0.6220    -3.3500 hc         1 GR5       0.064700
     85 H37          5.1160     0.3690    -2.9760 hc         1 GR5       0.066700
     86 H38          5.8040     1.7110    -2.0680 hc         1 GR5       0.066700
     87 H39          6.6500     2.2020    -0.0310 hc         1 GR5       0.059200
     88 H40          6.7830     1.3390     1.4910 hc         1 GR5       0.059200
     89 H41          8.7620     2.7860     1.0830 h1         1 GR5       0.045700
     90 H42          9.2460     1.0920     1.1230 h1         1 GR5       0.045700
     91 F61          5.6470    -3.1050     2.0280 f          1 GR5      -0.138400
@<TRIPOS>BOND
     1     1     3 1   
     2     1     9 1   
     3     2     3 2   
     4     2     8 1   
     5     3     4 1   
     6     4     5 1   
     7     4    49 1   
     8     5     6 1   
     9     5     7 1   
    10     5    50 1   
    11     6     7 1   
    12     6    51 1   
    13     6    52 1   
    14     7    53 1   
    15     7    54 1   
    16     8     9 ar  
    17     8    13 ar  
    18     9    10 ar  
    19    10    11 ar  
    20    10    55 1   
    21    11    12 ar  
    22    11    14 1   
    23    12    13 ar  
    24    12    56 1   
    25    13    57 1   
    26    14    15 2   
    27    14    16 2   
    28    14    17 1   
    29    17    18 1   
    30    17    22 1   
    31    18    19 1   
    32    18    58 1   
    33    18    59 1   
    34    19    20 1   
    35    19    21 1   
    36    19    60 1   
    37    20    61 1   
    38    20    62 1   
    39    20    63 1   
    40    21    64 1   
    41    21    65 1   
    42    21    66 1   
    43    22    23 1   
    44    22    67 1   
    45    22    68 1   
    46    23    24 1   
    47    23    25 1   
    48    23    69 1   
    49    24    70 1   
    50    25    26 1   
    51    25    30 1   
    52    25    71 1   
    53    26    27 1   
    54    26    72 1   
    55    27    28 2   
    56    27    29 1   
    57    29    38 1   
    58    30    36 1   
    59    30    73 1   
    60    30    74 1   
    61    31    32 ar  
    62    31    36 ar  
    63    31    75 1   
    64    32    33 ar  
    65    32    91 1   
    66    33    34 ar  
    67    33    76 1   
    68    34    35 ar  
    69    34    37 1   
    70    35    36 ar  
    71    35    77 1   
    72    38    39 1   
    73    38    45 1   
    74    38    78 1   
    75    39    40 1   
    76    39    46 1   
    77    39    79 1   
    78    40    41 1   
    79    40    44 1   
    80    40    80 1   
    81    41    42 1   
    82    41    48 1   
    83    41    81 1   
    84    42    43 1   
    85    43    44 1   
    86    43    82 1   
    87    43    83 1   
    88    44    45 1   
    89    44    84 1   
    90    45    85 1   
    91    45    86 1   
    92    46    47 1   
    93    46    87 1   
    94    46    88 1   
    95    47    48 1   
    96    47    89 1   
    97    47    90 1   
@<TRIPOS>SUBSTRUCTURE
     1 GR5         1 TEMP              0 ****  ****    0 ROOT
