@<TRIPOS>MOLECULE
GR5
   91    97     1     0     0
SMALL
No Charge or Current Charge


@<TRIPOS>ATOM
      1 S51         -6.9460     1.8250    -2.4890 ss         1 GR5      -0.033200
      2 N52         -8.3080    -0.1880    -1.3030 nc         1 GR5      -0.639100
      3 C53         -8.4180     0.9500    -1.9910 cd         1 GR5       0.672100
      4 N54         -9.6690     1.4110    -2.2880 nu         1 GR5      -0.855400
      5 C55        -10.9230     0.7950    -1.9500 cx         1 GR5       0.162500
      6 C56        -12.1240     1.1660    -2.7820 cx         1 GR5      -0.127400
      7 C57        -11.4950    -0.1970    -2.9310 cx         1 GR5      -0.127400
      8 C2          -6.9430    -0.4100    -1.1470 ca         1 GR5       0.200400
      9 C3          -6.0800     0.5250    -1.6940 ca         1 GR5      -0.225000
     10 C4          -4.6850     0.4090    -1.5990 ca         1 GR5       0.049000
     11 C5          -4.1530    -0.7060    -0.9190 ca         1 GR5      -0.311500
     12 C6          -5.0190    -1.6680    -0.3530 ca         1 GR5      -0.012000
     13 C7          -6.4150    -1.5180    -0.4680 ca         1 GR5      -0.107000
     14 S8          -2.3750    -0.8920    -0.7390 sy         1 GR5       1.193600
     15 O9          -2.0580    -2.2860    -1.0680 o          1 GR5      -0.540000
     16 O10         -1.6720     0.2320    -1.3630 o          1 GR5      -0.540000
     17 N11         -2.1700    -0.7590     0.9470 n3         1 GR5      -0.789500
     18 C12         -2.6970     0.5020     1.5320 c3         1 GR5       0.229800
     19 C13         -2.9590     0.4580     3.0630 c3         1 GR5      -0.080700
     20 C14         -3.4560     1.8280     3.5770 c3         1 GR5      -0.091100
     21 C15         -3.9430    -0.6700     3.4540 c3         1 GR5      -0.091100
     22 C16         -0.8510    -1.2310     1.4630 c3         1 GR5       0.202800
     23 C17          0.4060    -0.3350     1.1820 c3         1 GR5       0.139300
     24 O18          0.4090     0.8600     2.0000 oh         1 GR5      -0.649000
     25 C19          1.7510    -1.1040     1.3640 c3         1 GR5       0.094700
     26 N20          2.8790    -0.2500     0.9680 ns         1 GR5      -0.485900
     27 C21          3.9440    -0.6480     0.2120 c          1 GR5       0.643100
     28 O22          4.0830    -1.7600    -0.2730 o          1 GR5      -0.533000
     29 O23          4.8300     0.3890     0.1410 os         1 GR5      -0.459100
     30 C32          1.9830    -1.6810     2.7900 c3         1 GR5      -0.067100
     31 C33          4.4450    -1.8080     3.4350 ca         1 GR5      -0.163000
     32 C34          5.6610    -2.5040     3.5140 ca         1 GR5       0.205000
     33 C35          5.7500    -3.8320     3.0790 ca         1 GR5      -0.194000
     34 C36          4.6120    -4.4640     2.5610 ca         1 GR5       0.205000
     35 C37          3.3910    -3.7760     2.4750 ca         1 GR5      -0.163000
     36 C38          3.2990    -2.4400     2.9110 ca         1 GR5      -0.030300
     37 F62          4.6910    -5.7440     2.1380 f          1 GR5      -0.173500
     38 C24          6.0230     0.1190    -0.6370 c5         1 GR5       0.194300
     39 C25          7.0180     1.3100    -0.4530 c5         1 GR5      -0.050700
     40 C26          7.9840     1.0190    -1.6590 c5         1 GR5      -0.134700
     41 C27          8.5860     2.3070    -2.3480 c5         1 GR5       0.391300
     42 O28          8.4500     2.0090    -3.7490 os         1 GR5      -0.433000
     43 C29          7.1480     1.4030    -3.9150 c5         1 GR5       0.157600
     44 C30          7.1190     0.3500    -2.7700 c5         1 GR5      -0.097700
     45 C31          5.6870     0.2240    -2.1590 c5         1 GR5      -0.094400
     46 C41          6.3760     2.7220    -0.3840 c6         1 GR5      -0.102400
     47 C42          7.3960     3.7870    -0.7780 c6         1 GR5       0.167600
     48 O43          7.8100     3.5100    -2.1190 os         1 GR5      -0.477000
     49 H1          -9.6480     2.3010    -2.7820 hn         1 GR5       0.511000
     50 H2         -11.0810     0.6090    -0.8840 h1         1 GR5       0.092700
     51 H3         -13.0840     1.2280    -2.2770 hc         1 GR5       0.081450
     52 H4         -11.9910     1.8750    -3.5950 hc         1 GR5       0.081450
     53 H5         -10.9290    -0.4020    -3.8360 hc         1 GR5       0.081450
     54 H6         -12.0290    -1.0520    -2.5240 hc         1 GR5       0.081450
     55 H7          -4.0390     1.1680    -2.0390 ha         1 GR5       0.145000
     56 H8          -4.6130    -2.5240     0.1840 ha         1 GR5       0.131000
     57 H9          -7.0820    -2.2560    -0.0320 ha         1 GR5       0.135000
     58 H10         -2.0190     1.3360     1.3050 h1         1 GR5       0.067700
     59 H11         -3.6570     0.7650     1.0690 h1         1 GR5       0.067700
     60 H12         -2.0090     0.2610     3.5720 hc         1 GR5       0.041700
     61 H13         -4.4160     2.0940     3.1180 hc         1 GR5       0.037367
     62 H14         -3.5900     1.8090     4.6660 hc         1 GR5       0.037367
     63 H15         -2.7320     2.6170     3.3410 hc         1 GR5       0.037367
     64 H16         -4.9110    -0.5320     2.9570 hc         1 GR5       0.037367
     65 H17         -3.5490    -1.6520     3.1680 hc         1 GR5       0.037367
     66 H18         -4.1120    -0.6800     4.5380 hc         1 GR5       0.037367
     67 H19         -0.9210    -1.3880     2.5460 h1         1 GR5       0.054200
     68 H20         -0.6450    -2.2270     1.0490 h1         1 GR5       0.054200
     69 H21          0.3700    -0.0470     0.1230 h1         1 GR5       0.114700
     70 H22          0.3600     0.5790     2.9380 ho         1 GR5       0.434000
     71 H23          1.7220    -1.9570     0.6710 h1         1 GR5       0.099700
     72 H24          2.9010     0.7070     1.2960 hn         1 GR5       0.328500
     73 H25          1.9580    -0.8670     3.5230 hc         1 GR5       0.053700
     74 H26          1.1580    -2.3530     3.0530 hc         1 GR5       0.053700
     75 H27          4.3980    -0.7750     3.7690 ha         1 GR5       0.134000
     76 H28          6.6930    -4.3670     3.1410 ha         1 GR5       0.151000
     77 H29          2.5210    -4.2810     2.0630 ha         1 GR5       0.134000
     78 H30          6.4770    -0.8420    -0.3550 h1         1 GR5       0.065700
     79 H31          7.5660     1.2060     0.4910 hc         1 GR5       0.061700
     80 H32          8.7900     0.3430    -1.3520 hc         1 GR5       0.066700
     81 H33          9.6360     2.4700    -2.0710 h2         1 GR5       0.071700
     82 H34          6.3760     2.1780    -3.8080 h1         1 GR5       0.057200
     83 H35          7.0610     0.9530    -4.9130 h1         1 GR5       0.057200
     84 H36          7.5360    -0.6160    -3.0830 hc         1 GR5       0.064700
     85 H37          5.1710    -0.6670    -2.5330 hc         1 GR5       0.066700
     86 H38          5.0410     1.0790    -2.3820 hc         1 GR5       0.066700
     87 H39          5.5080     2.8070    -1.0500 hc         1 GR5       0.059200
     88 H40          6.0030     2.9160     0.6310 hc         1 GR5       0.059200
     89 H41          6.9370     4.7850    -0.7400 h1         1 GR5       0.045700
     90 H42          8.2670     3.7720    -0.1060 h1         1 GR5       0.045700
     91 F61          6.7550    -1.8860     4.0100 f          1 GR5      -0.173500
@<TRIPOS>BOND
     1     1     3 1   
     2     1     9 1   
     3     2     3 2   
     4     2     8 1   
     5     3     4 1   
     6     4     5 1   
     7     4    49 1   
     8     5     6 1   
     9     5     7 1   
    10     5    50 1   
    11     6     7 1   
    12     6    51 1   
    13     6    52 1   
    14     7    53 1   
    15     7    54 1   
    16     8     9 ar  
    17     8    13 ar  
    18     9    10 ar  
    19    10    11 ar  
    20    10    55 1   
    21    11    12 ar  
    22    11    14 1   
    23    12    13 ar  
    24    12    56 1   
    25    13    57 1   
    26    14    15 2   
    27    14    16 2   
    28    14    17 1   
    29    17    18 1   
    30    17    22 1   
    31    18    19 1   
    32    18    58 1   
    33    18    59 1   
    34    19    20 1   
    35    19    21 1   
    36    19    60 1   
    37    20    61 1   
    38    20    62 1   
    39    20    63 1   
    40    21    64 1   
    41    21    65 1   
    42    21    66 1   
    43    22    23 1   
    44    22    67 1   
    45    22    68 1   
    46    23    24 1   
    47    23    25 1   
    48    23    69 1   
    49    24    70 1   
    50    25    26 1   
    51    25    30 1   
    52    25    71 1   
    53    26    27 1   
    54    26    72 1   
    55    27    28 2   
    56    27    29 1   
    57    29    38 1   
    58    30    36 1   
    59    30    73 1   
    60    30    74 1   
    61    31    32 ar  
    62    31    36 ar  
    63    31    75 1   
    64    32    33 ar  
    65    32    91 1   
    66    33    34 ar  
    67    33    76 1   
    68    34    35 ar  
    69    34    37 1   
    70    35    36 ar  
    71    35    77 1   
    72    38    39 1   
    73    38    45 1   
    74    38    78 1   
    75    39    40 1   
    76    39    46 1   
    77    39    79 1   
    78    40    41 1   
    79    40    44 1   
    80    40    80 1   
    81    41    42 1   
    82    41    48 1   
    83    41    81 1   
    84    42    43 1   
    85    43    44 1   
    86    43    82 1   
    87    43    83 1   
    88    44    45 1   
    89    44    84 1   
    90    45    85 1   
    91    45    86 1   
    92    46    47 1   
    93    46    87 1   
    94    46    88 1   
    95    47    48 1   
    96    47    89 1   
    97    47    90 1   
@<TRIPOS>SUBSTRUCTURE
     1 GR5         1 TEMP              0 ****  ****    0 ROOT
