@<TRIPOS>MOLECULE
GR6
   86    90     1     0     0
SMALL
abcg2


@<TRIPOS>ATOM
      1 C1          21.0230   -15.0460    -7.3030 ca         1 GR6       0.230100
      2 C2          21.5980   -15.9800    -6.4410 ca         1 GR6      -0.318000
      3 C3          21.0280   -17.2460    -6.2900 ca         1 GR6       0.283100
      4 C4          19.8650   -17.5740    -7.0180 ca         1 GR6      -0.387500
      5 C5          19.3120   -16.6200    -7.8780 ca         1 GR6       0.041000
      6 C6          19.8730   -15.3700    -8.0300 ca         1 GR6      -0.202000
      7 S7          18.9880   -19.1050    -6.8430 sy         1 GR6       1.210600
      8 O8          18.1160   -19.2120    -7.9920 o          1 GR6      -0.544500
      9 O9          19.9070   -20.1850    -6.5830 o          1 GR6      -0.544500
     10 N10         18.0190   -18.9700    -5.5230 n3         1 GR6      -0.757500
     11 C11         18.6690   -19.0380    -4.1990 c3         1 GR6       0.208800
     12 C12         18.2930   -20.2750    -3.3860 c3         1 GR6      -0.082400
     13 C13         19.0010   -20.2830    -2.0220 c3         1 GR6      -0.065400
     14 C14         20.3740   -20.9820    -1.9880 c3         1 GR6      -0.045200
     15 C15         16.8310   -18.1170    -5.6380 c3         1 GR6       0.183800
     16 C16         15.5660   -18.8140    -5.1260 c3         1 GR6       0.153300
     17 O17         14.4510   -17.9310    -5.2510 oh         1 GR6      -0.665000
     18 C18         15.2500   -20.1080    -5.8780 c3         1 GR6       0.138700
     19 N19         14.2490   -20.8770    -5.1600 ns         1 GR6      -0.494900
     20 C20         14.4850   -22.1030    -4.6580 c          1 GR6       0.634100
     21 O21         15.5620   -22.6790    -4.6510 o          1 GR6      -0.547000
     22 O22         13.3460   -22.6260    -4.1410 os         1 GR6      -0.459100
     23 C23         13.4140   -23.9590    -3.5960 c5         1 GR6       0.161300
     24 C24         12.3090   -24.0800    -2.5630 c5         1 GR6       0.152600
     25 O25         11.1340   -24.4110    -3.3070 os         1 GR6      -0.467000
     26 C26         11.5180   -25.2920    -4.3650 c5         1 GR6       0.367300
     27 O27         10.8160   -24.9870    -5.5370 os         1 GR6      -0.447000
     28 C28         11.6450   -24.1420    -6.3640 c5         1 GR6       0.150600
     29 C29         13.0620   -24.6400    -6.1100 c5         1 GR6      -0.094400
     30 C30         13.0260   -25.0360    -4.6290 c5         1 GR6      -0.141700
     31 C31         14.8080   -19.8840    -7.3320 c3         1 GR6      -0.046100
     32 C32         13.3960   -21.6230    -8.4980 ca         1 GR6      -0.100000
     33 C33         13.2540   -22.8190    -9.1970 ca         1 GR6      -0.115000
     34 C34         14.3700   -23.5950    -9.4850 ca         1 GR6      -0.115000
     35 C35         15.6290   -23.1640    -9.0740 ca         1 GR6      -0.115000
     36 C36         15.7670   -21.9660    -8.3840 ca         1 GR6      -0.100000
     37 C37         14.6520   -21.1780    -8.0870 ca         1 GR6      -0.081300
     38 O38         21.5170   -13.8030    -7.4930 os         1 GR6      -0.341100
     39 C39         22.6930   -13.4100    -6.7810 c3         1 GR6       0.147900
     40 O40         21.5510   -18.1790    -5.4740 os         1 GR6      -0.347100
     41 C41         22.7650   -17.9090    -4.7540 c3         1 GR6       0.173600
     42 C42         23.1800   -19.2000    -4.0640 c3         1 GR6      -0.040200
     43 C43         22.2640   -19.6220    -2.9510 c2         1 GR6      -0.243200
     44 C44         21.3290   -20.5610    -3.0680 c2         1 GR6      -0.191200
     45 H2          22.4840   -15.7280    -5.8850 ha         1 GR6       0.122000
     46 H5          18.4260   -16.8780    -8.4400 ha         1 GR6       0.142000
     47 H6          19.4410   -14.6410    -8.7010 ha         1 GR6       0.137000
     48 H11         19.7450   -19.0050    -4.3320 h1         1 GR6       0.052200
     49 H11A        18.3890   -18.1360    -3.6480 h1         1 GR6       0.052200
     50 H12         17.2130   -20.2940    -3.2340 hc         1 GR6       0.061200
     51 H12A        18.5430   -21.1730    -3.9580 hc         1 GR6       0.061200
     52 H13         19.1230   -19.2500    -1.6820 hc         1 GR6       0.037200
     53 H13A        18.3610   -20.7740    -1.2850 hc         1 GR6       0.037200
     54 H14         20.8240   -20.7990    -1.0080 hc         1 GR6       0.045700
     55 H14A        20.2120   -22.0610    -2.0680 hc         1 GR6       0.045700
     56 H15         16.9810   -17.1980    -5.0640 h1         1 GR6       0.057200
     57 H15A        16.6850   -17.8380    -6.6780 h1         1 GR6       0.057200
     58 H16         15.7020   -19.0770    -4.0740 h1         1 GR6       0.048700
     59 HO17        14.5270   -17.2420    -4.5800 ho         1 GR6       0.443000
     60 H18         16.1570   -20.7070    -5.8690 h1         1 GR6       0.099700
     61 HN19        13.3000   -20.5370    -5.1360 hn         1 GR6       0.332500
     62 H23         14.4050   -24.1160    -3.1810 h1         1 GR6       0.085700
     63 H24         12.5530   -24.8760    -1.8520 h1         1 GR6       0.061700
     64 H24A        12.1290   -23.1530    -2.0220 h1         1 GR6       0.061700
     65 H26         11.2670   -26.3170    -4.0840 h2         1 GR6       0.081700
     66 H28         11.3090   -24.2630    -7.3910 h1         1 GR6       0.057200
     67 H28A        11.5280   -23.0960    -6.0680 h1         1 GR6       0.057200
     68 H29         13.2600   -25.5220    -6.7190 hc         1 GR6       0.067700
     69 H29A        13.8180   -23.8960    -6.3480 hc         1 GR6       0.067700
     70 H30         13.6140   -25.9300    -4.4340 hc         1 GR6       0.076700
     71 H31         13.8670   -19.3340    -7.3400 hc         1 GR6       0.070200
     72 H31A        15.5550   -19.2630    -7.8270 hc         1 GR6       0.070200
     73 H33         12.2700   -23.1470    -9.5060 ha         1 GR6       0.111000
     74 H34         14.2620   -24.5280   -10.0230 ha         1 GR6       0.109000
     75 H35         16.5060   -23.7620    -9.2940 ha         1 GR6       0.111000
     76 H36         16.7500   -21.6310    -8.0750 ha         1 GR6       0.117500
     77 H39         22.8940   -12.3870    -7.0870 h1         1 GR6       0.047033
     78 H39A        22.5260   -13.4470    -5.7020 h1         1 GR6       0.047033
     79 H39B        23.5400   -14.0470    -7.0460 h1         1 GR6       0.047033
     80 H41         23.5390   -17.5930    -5.4580 h1         1 GR6       0.040200
     81 H41A        22.5900   -17.1040    -4.0340 h1         1 GR6       0.040200
     82 H42         23.2420   -19.9840    -4.8220 hc         1 GR6       0.063700
     83 H42A        24.1910   -19.0410    -3.6770 hc         1 GR6       0.063700
     84 H43         22.3780   -19.0970    -2.0050 ha         1 GR6       0.162000
     85 H44         21.2190   -21.0580    -4.0290 ha         1 GR6       0.194000
     86 H32         12.5210   -21.0270    -8.2680 ha         1 GR6       0.117500
@<TRIPOS>BOND
     1     1     2 ar  
     2     1     6 ar  
     3     1    38 1   
     4     2     3 ar  
     5     2    45 1   
     6     3     4 ar  
     7     3    40 1   
     8     4     5 ar  
     9     4     7 1   
    10     5     6 ar  
    11     5    46 1   
    12     6    47 1   
    13     7     8 2   
    14     7     9 2   
    15     7    10 1   
    16    10    11 1   
    17    10    15 1   
    18    11    12 1   
    19    11    48 1   
    20    11    49 1   
    21    12    13 1   
    22    12    50 1   
    23    12    51 1   
    24    13    14 1   
    25    13    52 1   
    26    13    53 1   
    27    14    44 1   
    28    14    54 1   
    29    14    55 1   
    30    15    16 1   
    31    15    56 1   
    32    15    57 1   
    33    16    17 1   
    34    16    18 1   
    35    16    58 1   
    36    17    59 1   
    37    18    19 1   
    38    18    31 1   
    39    18    60 1   
    40    19    20 1   
    41    19    61 1   
    42    20    21 2   
    43    20    22 1   
    44    22    23 1   
    45    23    24 1   
    46    23    30 1   
    47    23    62 1   
    48    24    25 1   
    49    24    63 1   
    50    24    64 1   
    51    25    26 1   
    52    26    27 1   
    53    26    30 1   
    54    26    65 1   
    55    27    28 1   
    56    28    29 1   
    57    28    66 1   
    58    28    67 1   
    59    29    30 1   
    60    29    68 1   
    61    29    69 1   
    62    30    70 1   
    63    31    37 1   
    64    31    71 1   
    65    31    72 1   
    66    32    33 ar  
    67    32    37 ar  
    68    32    86 1   
    69    33    34 ar  
    70    33    73 1   
    71    34    35 ar  
    72    34    74 1   
    73    35    36 ar  
    74    35    75 1   
    75    36    37 ar  
    76    36    76 1   
    77    38    39 1   
    78    39    77 1   
    79    39    78 1   
    80    39    79 1   
    81    40    41 1   
    82    41    42 1   
    83    41    80 1   
    84    41    81 1   
    85    42    43 1   
    86    42    82 1   
    87    42    83 1   
    88    43    44 2   
    89    43    84 1   
    90    44    85 1   
@<TRIPOS>SUBSTRUCTURE
     1 GR6         1 TEMP              0 ****  ****    0 ROOT
