@<TRIPOS>MOLECULE
GR6
   86    90     1     0     0
SMALL
No Charge or Current Charge


@<TRIPOS>ATOM
      1 C1          20.6190   -14.4960    -6.6380 ca         1 GR6       0.230100
      2 C2          21.3190   -15.5070    -5.9550 ca         1 GR6      -0.318000
      3 C3          21.0390   -16.8680    -6.2070 ca         1 GR6       0.283100
      4 C4          20.0480   -17.2070    -7.1520 ca         1 GR6      -0.387500
      5 C5          19.3530   -16.1870    -7.8340 ca         1 GR6       0.041000
      6 C6          19.6410   -14.8420    -7.5730 ca         1 GR6      -0.202000
      7 S7          19.6210   -18.9150    -7.5350 sy         1 GR6       1.210600
      8 O8          18.8570   -18.9570    -8.7870 o          1 GR6      -0.544500
      9 O9          20.7820   -19.7960    -7.3700 o          1 GR6      -0.544500
     10 N10         18.4990   -19.3210    -6.3010 n3         1 GR6      -0.757500
     11 C11         19.1230   -19.5320    -4.9650 c3         1 GR6       0.208800
     12 C12         18.5420   -20.6970    -4.1240 c3         1 GR6      -0.082400
     13 C13         19.2630   -20.9400    -2.7710 c3         1 GR6      -0.065400
     14 C14         20.6210   -21.6850    -2.8480 c3         1 GR6      -0.045200
     15 C15         17.3130   -18.4100    -6.2900 c3         1 GR6       0.183800
     16 C16         16.0050   -18.9420    -5.6320 c3         1 GR6       0.153300
     17 O17         14.9300   -18.0000    -5.8440 oh         1 GR6      -0.665000
     18 C18         15.5890   -20.3570    -6.1470 c3         1 GR6       0.138700
     19 N19         14.4600   -20.8790    -5.3670 ns         1 GR6      -0.494900
     20 C20         14.4970   -21.9930    -4.5830 c          1 GR6       0.634100
     21 O21         15.4870   -22.6810    -4.3870 o          1 GR6      -0.547000
     22 O22         13.2420   -22.2090    -4.0880 os         1 GR6      -0.459100
     23 C23         13.0900   -23.4120    -3.2780 c5         1 GR6       0.161300
     24 C24         11.8720   -23.1780    -2.3440 c5         1 GR6       0.152600
     25 O25         10.7380   -23.4990    -3.1690 os         1 GR6      -0.467000
     26 C26         11.0630   -24.7060    -3.8770 c5         1 GR6       0.367300
     27 O27         10.4640   -24.6250    -5.1840 os         1 GR6      -0.447000
     28 C28         11.3600   -23.8620    -6.0140 c5         1 GR6       0.150600
     29 C29         12.7260   -24.4960    -5.6710 c5         1 GR6      -0.094400
     30 C30         12.6110   -24.6700    -4.1130 c5         1 GR6      -0.141700
     31 C31         15.2780   -20.4280    -7.6670 c3         1 GR6      -0.046100
     32 C32         13.5490   -22.0290    -8.6420 ca         1 GR6      -0.100000
     33 C33         13.1560   -23.3070    -9.0740 ca         1 GR6      -0.115000
     34 C34         14.0540   -24.3840    -8.9950 ca         1 GR6      -0.115000
     35 C35         15.3470   -24.1810    -8.4840 ca         1 GR6      -0.115000
     36 C36         15.7420   -22.9020    -8.0550 ca         1 GR6      -0.100000
     37 C37         14.8450   -21.8180    -8.1300 ca         1 GR6      -0.081300
     38 O38         20.8550   -13.1530    -6.4270 os         1 GR6      -0.341100
     39 C39         21.8380   -12.6810    -5.4880 c3         1 GR6       0.147900
     40 O40         21.7160   -17.8640    -5.5350 os         1 GR6      -0.347100
     41 C41         22.7270   -17.5940    -4.5450 c3         1 GR6       0.173600
     42 C42         23.2430   -18.9400    -3.9910 c3         1 GR6      -0.040200
     43 C43         22.1900   -19.7200    -3.2230 c2         1 GR6      -0.243200
     44 C44         21.7210   -20.9300    -3.5680 c2         1 GR6      -0.191200
     45 H2          22.0760   -15.2340    -5.2320 ha         1 GR6       0.122000
     46 H5          18.5850   -16.4260    -8.5690 ha         1 GR6       0.142000
     47 H6          19.1010   -14.0610    -8.1010 ha         1 GR6       0.137000
     48 H11         20.1800   -19.7670    -5.0860 h1         1 GR6       0.052200
     49 H11A        19.0880   -18.6050    -4.3760 h1         1 GR6       0.052200
     50 H12         17.4930   -20.5040    -3.8950 hc         1 GR6       0.061200
     51 H12A        18.5650   -21.6170    -4.7200 hc         1 GR6       0.061200
     52 H13         19.3930   -19.9840    -2.2490 hc         1 GR6       0.037200
     53 H13A        18.5950   -21.5400    -2.1400 hc         1 GR6       0.037200
     54 H14         20.9510   -21.9080    -1.8250 hc         1 GR6       0.045700
     55 H14A        20.4630   -22.6570    -3.3300 hc         1 GR6       0.045700
     56 H15         17.5820   -17.4640    -5.8010 h1         1 GR6       0.057200
     57 H15A        17.0370   -18.1450    -7.3190 h1         1 GR6       0.057200
     58 H16         16.1850   -19.0170    -4.5530 h1         1 GR6       0.048700
     59 HO17        15.0800   -17.2390    -5.2400 ho         1 GR6       0.443000
     60 H18         16.4470   -21.0190    -5.9770 h1         1 GR6       0.099700
     61 HN19        13.5710   -20.4020    -5.4220 hn         1 GR6       0.332500
     62 H23         13.9960   -23.6010    -2.6840 h1         1 GR6       0.085700
     63 H24         11.8930   -23.8540    -1.4780 h1         1 GR6       0.061700
     64 H24A        11.8000   -22.1430    -1.9840 h1         1 GR6       0.061700
     65 H26         10.7320   -25.5960    -3.3250 h2         1 GR6       0.081700
     66 H28         11.0870   -23.9740    -7.0710 h1         1 GR6       0.057200
     67 H28A        11.3060   -22.8000    -5.7390 h1         1 GR6       0.057200
     68 H29         12.8140   -25.4730    -6.1600 hc         1 GR6       0.067700
     69 H29A        13.5790   -23.9100    -6.0200 hc         1 GR6       0.067700
     70 H30         13.0940   -25.5890    -3.7620 hc         1 GR6       0.076700
     71 H31         14.5030   -19.6910    -7.9090 hc         1 GR6       0.070200
     72 H31A        16.1680   -20.1280    -8.2310 hc         1 GR6       0.070200
     73 H33         12.1550   -23.4630    -9.4710 ha         1 GR6       0.111000
     74 H34         13.7490   -25.3740    -9.3270 ha         1 GR6       0.109000
     75 H35         16.0440   -25.0140    -8.4210 ha         1 GR6       0.111000
     76 H36         16.7470   -22.7540    -7.6660 ha         1 GR6       0.117500
     77 H39         21.8600   -11.5840    -5.4800 h1         1 GR6       0.047033
     78 H39A        21.6040   -13.0240    -4.4720 h1         1 GR6       0.047033
     79 H39B        22.8400   -13.0380    -5.7590 h1         1 GR6       0.047033
     80 H41         23.5650   -17.0450    -4.9930 h1         1 GR6       0.040200
     81 H41A        22.3170   -16.9960    -3.7210 h1         1 GR6       0.040200
     82 H42         23.6350   -19.5340    -4.8260 hc         1 GR6       0.063700
     83 H42A        24.0970   -18.7370    -3.3340 hc         1 GR6       0.063700
     84 H43         21.7980   -19.2060    -2.3430 ha         1 GR6       0.162000
     85 H44         22.1040   -21.4380    -4.4560 ha         1 GR6       0.194000
     86 H32         12.8440   -21.2030    -8.7060 ha         1 GR6       0.117500
@<TRIPOS>BOND
     1     1     2 ar  
     2     1     6 ar  
     3     1    38 1   
     4     2     3 ar  
     5     2    45 1   
     6     3     4 ar  
     7     3    40 1   
     8     4     5 ar  
     9     4     7 1   
    10     5     6 ar  
    11     5    46 1   
    12     6    47 1   
    13     7     8 2   
    14     7     9 2   
    15     7    10 1   
    16    10    11 1   
    17    10    15 1   
    18    11    12 1   
    19    11    48 1   
    20    11    49 1   
    21    12    13 1   
    22    12    50 1   
    23    12    51 1   
    24    13    14 1   
    25    13    52 1   
    26    13    53 1   
    27    14    44 1   
    28    14    54 1   
    29    14    55 1   
    30    15    16 1   
    31    15    56 1   
    32    15    57 1   
    33    16    17 1   
    34    16    18 1   
    35    16    58 1   
    36    17    59 1   
    37    18    19 1   
    38    18    31 1   
    39    18    60 1   
    40    19    20 1   
    41    19    61 1   
    42    20    21 2   
    43    20    22 1   
    44    22    23 1   
    45    23    24 1   
    46    23    30 1   
    47    23    62 1   
    48    24    25 1   
    49    24    63 1   
    50    24    64 1   
    51    25    26 1   
    52    26    27 1   
    53    26    30 1   
    54    26    65 1   
    55    27    28 1   
    56    28    29 1   
    57    28    66 1   
    58    28    67 1   
    59    29    30 1   
    60    29    68 1   
    61    29    69 1   
    62    30    70 1   
    63    31    37 1   
    64    31    71 1   
    65    31    72 1   
    66    32    33 ar  
    67    32    37 ar  
    68    32    86 1   
    69    33    34 ar  
    70    33    73 1   
    71    34    35 ar  
    72    34    74 1   
    73    35    36 ar  
    74    35    75 1   
    75    36    37 ar  
    76    36    76 1   
    77    38    39 1   
    78    39    77 1   
    79    39    78 1   
    80    39    79 1   
    81    40    41 1   
    82    41    42 1   
    83    41    80 1   
    84    41    81 1   
    85    42    43 1   
    86    42    82 1   
    87    42    83 1   
    88    43    44 2   
    89    43    84 1   
    90    44    85 1   
@<TRIPOS>SUBSTRUCTURE
     1 GR6         1 TEMP              0 ****  ****    0 ROOT
