@<TRIPOS>MOLECULE
GR7
   86    90     1     0     0
SMALL
No Charge or Current Charge


@<TRIPOS>ATOM
      1 C1          20.6190   -14.2800    -6.2570 ca         1 GR7       0.193100
      2 C2          21.3150   -15.4960    -6.1190 ca         1 GR7      -0.207000
      3 C3          20.7540   -16.7210    -6.5560 ca         1 GR7       0.067700
      4 C4          19.4590   -16.6980    -7.1610 ca         1 GR7      -0.347500
      5 C5          18.7780   -15.4680    -7.2970 ca         1 GR7       0.001000
      6 C6          19.3520   -14.2750    -6.8440 ca         1 GR7      -0.166000
      7 S7          18.6110   -18.1630    -7.8280 sy         1 GR7       1.197600
      8 O8          17.8160   -17.7370    -8.9850 o          1 GR7      -0.549000
      9 O9          19.5220   -19.3020    -7.9670 o          1 GR7      -0.549000
     10 N10         17.4740   -18.5770    -6.6030 n3         1 GR7      -0.758500
     11 C15         16.2280   -17.7520    -6.6040 c3         1 GR7       0.181800
     12 C16         15.0050   -18.3820    -5.8650 c3         1 GR7       0.153300
     13 O17         13.8210   -17.5870    -6.0970 oh         1 GR7      -0.664000
     14 C18         14.7450   -19.8690    -6.2640 c3         1 GR7       0.137700
     15 N19         13.6880   -20.4560    -5.4320 ns         1 GR7      -0.493900
     16 C20         13.8710   -21.4620    -4.5310 c          1 GR7       0.635100
     17 O21         14.9450   -21.9740    -4.2590 o          1 GR7      -0.551000
     18 O22         12.6500   -21.8060    -4.0220 os         1 GR7      -0.457100
     19 C23         12.6570   -22.9340    -3.0980 c5         1 GR7       0.161300
     20 C24         11.4020   -22.7880    -2.1960 c5         1 GR7       0.152600
     21 O25         10.3400   -23.3500    -2.9870 os         1 GR7      -0.466000
     22 C26         10.8480   -24.5610    -3.5710 c5         1 GR7       0.368300
     23 O27         10.2640   -24.6970    -4.8800 os         1 GR7      -0.447000
     24 C28         11.0500   -23.8950    -5.7800 c5         1 GR7       0.150600
     25 C29         12.4900   -24.2850    -5.3760 c5         1 GR7      -0.095400
     26 C30         12.3780   -24.3230    -3.8080 c5         1 GR7      -0.141700
     27 C31         14.4370   -20.0930    -7.7690 c3         1 GR7      -0.048100
     28 C32         12.9140   -21.9680    -8.5870 ca         1 GR7      -0.101500
     29 C33         12.6810   -23.3160    -8.9100 ca         1 GR7      -0.112000
     30 C34         13.7060   -24.2640    -8.7600 ca         1 GR7      -0.114000
     31 C35         14.9680   -23.8620    -8.2890 ca         1 GR7      -0.112000
     32 C36         15.2030   -22.5130    -7.9710 ca         1 GR7      -0.101500
     33 C37         14.1770   -21.5580    -8.1160 ca         1 GR7      -0.081300
     34 O38         21.1360   -13.0710    -5.8360 os         1 GR7      -0.345100
     35 C39         22.4290   -12.9600    -5.2140 c3         1 GR7       0.146900
     36 C11         18.0420   -18.7840    -5.2440 c3         1 GR7       0.202800
     37 C12         18.6280   -20.1940    -5.0010 c3         1 GR7      -0.097400
     38 C13         19.2200   -20.3650    -3.5770 c3         1 GR7      -0.068400
     39 C14         20.4110   -21.3520    -3.5070 c3         1 GR7      -0.044200
     40 C40         21.5560   -18.0260    -6.3630 c3         1 GR7       0.175900
     41 O41         22.6690   -17.8600    -5.4490 os         1 GR7      -0.470000
     42 C42         23.2790   -19.0810    -4.9880 c3         1 GR7       0.195800
     43 C43         22.2930   -19.7510    -4.0560 c2         1 GR7      -0.274200
     44 C44         21.5830   -20.8580    -4.3310 c2         1 GR7      -0.188200
     45 H1          22.3010   -15.4970    -5.6690 ha         1 GR7       0.141000
     46 H2          17.7950   -15.4270    -7.7630 ha         1 GR7       0.130000
     47 H3          18.8140   -13.3380    -6.9550 ha         1 GR7       0.134000
     48 H4          16.4330   -16.7680    -6.1610 h1         1 GR7       0.064200
     49 H5          15.8860   -17.5650    -7.6290 h1         1 GR7       0.064200
     50 H6          15.2230   -18.3780    -4.7900 h1         1 GR7       0.045700
     51 H7          13.8910   -16.7840    -5.5350 ho         1 GR7       0.444000
     52 H8          15.6740   -20.4140    -6.0530 h1         1 GR7       0.098700
     53 H9          12.7410   -20.1210    -5.5410 hn         1 GR7       0.335500
     54 H10         13.5700   -22.9330    -2.4850 h1         1 GR7       0.085700
     55 H11         11.5050   -23.3660    -1.2670 h1         1 GR7       0.062200
     56 H12         11.1750   -21.7450    -1.9410 h1         1 GR7       0.062200
     57 H13         10.6410   -25.4310    -2.9330 h2         1 GR7       0.081700
     58 H14         10.8370   -22.8310    -5.6100 h1         1 GR7       0.057200
     59 H15         10.8120   -24.1480    -6.8210 h1         1 GR7       0.057200
     60 H16         12.7270   -25.2800    -5.7680 hc         1 GR7       0.067200
     61 H17         13.2520   -23.6150    -5.7810 hc         1 GR7       0.067200
     62 H18         12.9830   -25.1240    -3.3690 hc         1 GR7       0.076700
     63 H19         15.2810   -19.7310    -8.3680 hc         1 GR7       0.070700
     64 H20         13.5760   -19.4770    -8.0550 hc         1 GR7       0.070700
     65 H22         11.7040   -23.6260    -9.2760 ha         1 GR7       0.112500
     66 H23         13.5250   -25.3080    -9.0070 ha         1 GR7       0.111000
     67 H24         15.7630   -24.5950    -8.1730 ha         1 GR7       0.112500
     68 H25         16.1850   -22.2110    -7.6120 ha         1 GR7       0.115000
     69 H26         22.6390   -11.9140    -4.9580 h1         1 GR7       0.049033
     70 H27         22.4700   -13.5500    -4.2900 h1         1 GR7       0.049033
     71 H28         23.2200   -13.3080    -5.8910 h1         1 GR7       0.049033
     72 H29         18.8080   -18.0290    -5.0240 h1         1 GR7       0.043700
     73 H30         17.2710   -18.6440    -4.4770 h1         1 GR7       0.043700
     74 H31         17.8430   -20.9430    -5.1550 hc         1 GR7       0.073200
     75 H32         19.3940   -20.4100    -5.7480 hc         1 GR7       0.073200
     76 H33         19.5580   -19.3920    -3.2000 hc         1 GR7       0.038700
     77 H34         18.4270   -20.6990    -2.8970 hc         1 GR7       0.038700
     78 H35         20.0880   -22.3420    -3.8510 hc         1 GR7       0.051200
     79 H36         20.7140   -21.4690    -2.4590 hc         1 GR7       0.051200
     80 H37         20.8720   -18.7810    -5.9670 h1         1 GR7       0.063700
     81 H38         21.9170   -18.3760    -7.3390 h1         1 GR7       0.063700
     82 H39         23.5330   -19.7390    -5.8310 h1         1 GR7       0.054200
     83 H40         24.2060   -18.8600    -4.4420 h1         1 GR7       0.054200
     84 H41         22.0960   -19.1790    -3.1480 ha         1 GR7       0.175000
     85 H42         21.7440   -21.4060    -5.2630 ha         1 GR7       0.177000
     86 H21         12.1110   -21.2440    -8.7050 ha         1 GR7       0.115000
@<TRIPOS>BOND
     1     1     2 ar  
     2     1     6 ar  
     3     1    34 1   
     4     2     3 ar  
     5     2    45 1   
     6     3     4 ar  
     7     3    40 1   
     8     4     5 ar  
     9     4     7 1   
    10     5     6 ar  
    11     5    46 1   
    12     6    47 1   
    13     7     8 2   
    14     7     9 2   
    15     7    10 1   
    16    10    11 1   
    17    10    36 1   
    18    11    12 1   
    19    11    48 1   
    20    11    49 1   
    21    12    13 1   
    22    12    14 1   
    23    12    50 1   
    24    13    51 1   
    25    14    15 1   
    26    14    27 1   
    27    14    52 1   
    28    15    16 1   
    29    15    53 1   
    30    16    17 2   
    31    16    18 1   
    32    18    19 1   
    33    19    20 1   
    34    19    26 1   
    35    19    54 1   
    36    20    21 1   
    37    20    55 1   
    38    20    56 1   
    39    21    22 1   
    40    22    23 1   
    41    22    26 1   
    42    22    57 1   
    43    23    24 1   
    44    24    25 1   
    45    24    58 1   
    46    24    59 1   
    47    25    26 1   
    48    25    60 1   
    49    25    61 1   
    50    26    62 1   
    51    27    33 1   
    52    27    63 1   
    53    27    64 1   
    54    28    29 ar  
    55    28    33 ar  
    56    28    86 1   
    57    29    30 ar  
    58    29    65 1   
    59    30    31 ar  
    60    30    66 1   
    61    31    32 ar  
    62    31    67 1   
    63    32    33 ar  
    64    32    68 1   
    65    34    35 1   
    66    35    69 1   
    67    35    70 1   
    68    35    71 1   
    69    36    37 1   
    70    36    72 1   
    71    36    73 1   
    72    37    38 1   
    73    37    74 1   
    74    37    75 1   
    75    38    39 1   
    76    38    76 1   
    77    38    77 1   
    78    39    44 1   
    79    39    78 1   
    80    39    79 1   
    81    40    41 1   
    82    40    80 1   
    83    40    81 1   
    84    41    42 1   
    85    42    43 1   
    86    42    82 1   
    87    42    83 1   
    88    43    44 2   
    89    43    84 1   
    90    44    85 1   
@<TRIPOS>SUBSTRUCTURE
     1 GR7         1 TEMP              0 ****  ****    0 ROOT
