@<TRIPOS>MOLECULE
GR7
   86    90     1     0     0
SMALL
abcg2


@<TRIPOS>ATOM
      1 C1          20.8160   -14.6600    -6.9980 ca         1 GR7       0.193100
      2 C2          21.3790   -15.8730    -6.6060 ca         1 GR7      -0.207000
      3 C3          20.6790   -17.0720    -6.7310 ca         1 GR7       0.067700
      4 C4          19.3840   -17.0310    -7.2740 ca         1 GR7      -0.347500
      5 C5          18.8260   -15.8100    -7.6730 ca         1 GR7       0.001000
      6 C6          19.5280   -14.6330    -7.5430 ca         1 GR7      -0.166000
      7 S7          18.3050   -18.4340    -7.4080 sy         1 GR7       1.197600
      8 O8          17.4540   -18.2420    -8.5600 o          1 GR7      -0.549000
      9 O9          19.0950   -19.6400    -7.3420 o          1 GR7      -0.549000
     10 N10         17.3330   -18.4080    -6.0780 n3         1 GR7      -0.758500
     11 C15         16.0930   -17.6240    -6.1180 c3         1 GR7       0.181800
     12 C16         14.9430   -18.3840    -5.4490 c3         1 GR7       0.153300
     13 O17         13.7460   -17.6110    -5.5430 oh         1 GR7      -0.664000
     14 C18         14.6820   -19.7550    -6.0710 c3         1 GR7       0.137700
     15 N19         13.7210   -20.4870    -5.2660 ns         1 GR7      -0.493900
     16 C20         14.0170   -21.6280    -4.6190 c          1 GR7       0.635100
     17 O21         15.1160   -22.1610    -4.5700 o          1 GR7      -0.551000
     18 O22         12.9110   -22.1190    -4.0070 os         1 GR7      -0.457100
     19 C23         13.0330   -23.3840    -3.3270 c5         1 GR7       0.161300
     20 C24         11.9590   -23.4240    -2.2560 c5         1 GR7       0.152600
     21 O25         10.7730   -23.8540    -2.9280 os         1 GR7      -0.466000
     22 C26         11.1500   -24.8270    -3.9060 c5         1 GR7       0.368300
     23 O27         10.4160   -24.6510    -5.0860 os         1 GR7      -0.447000
     24 C28         11.2130   -23.8880    -6.0180 c5         1 GR7       0.150600
     25 C29         12.6430   -24.3390    -5.7460 c5         1 GR7      -0.095400
     26 C30         12.6460   -24.5740    -4.2300 c5         1 GR7      -0.141700
     27 C31         14.2260   -19.6950    -7.5370 c3         1 GR7      -0.048100
     28 C32         12.8550   -21.5970    -8.4790 ca         1 GR7      -0.101500
     29 C33         12.7450   -22.8680    -9.0370 ca         1 GR7      -0.112000
     30 C34         13.8840   -23.6310    -9.2620 ca         1 GR7      -0.114000
     31 C35         15.1340   -23.1140    -8.9290 ca         1 GR7      -0.112000
     32 C36         15.2390   -21.8420    -8.3800 ca         1 GR7      -0.101500
     33 C37         14.1000   -21.0660    -8.1480 ca         1 GR7      -0.081300
     34 O38         21.4410   -13.4670    -6.8900 os         1 GR7      -0.345100
     35 C39         22.7500   -13.4260    -6.3140 c3         1 GR7       0.146900
     36 C11         18.0020   -18.4890    -4.7620 c3         1 GR7       0.202800
     37 C12         18.2440   -19.9050    -4.2520 c3         1 GR7      -0.097400
     38 C13         18.9230   -19.8760    -2.8690 c3         1 GR7      -0.068400
     39 C14         20.0870   -20.8720    -2.7180 c3         1 GR7      -0.044200
     40 C40         21.3600   -18.3490    -6.2990 c3         1 GR7       0.175900
     41 O41         22.5010   -18.0680    -5.5040 os         1 GR7      -0.470000
     42 C42         22.9620   -19.2310    -4.7880 c3         1 GR7       0.195800
     43 C43         22.0220   -19.5880    -3.6790 c2         1 GR7      -0.274200
     44 C44         21.1720   -20.6100    -3.7310 c2         1 GR7      -0.188200
     45 H1          22.3710   -15.9080    -6.1860 ha         1 GR7       0.141000
     46 H2          17.8300   -15.7920    -8.0920 ha         1 GR7       0.130000
     47 H3          19.0980   -13.6890    -7.8510 ha         1 GR7       0.134000
     48 H4          16.2320   -16.6680    -5.6030 h1         1 GR7       0.064200
     49 H5          15.8360   -17.4160    -7.1510 h1         1 GR7       0.064200
     50 H6          15.1850   -18.5540    -4.3960 h1         1 GR7       0.045700
     51 H7          13.8010   -16.8780    -4.9170 ho         1 GR7       0.444000
     52 H8          15.6140   -20.3110    -6.0150 h1         1 GR7       0.098700
     53 H9          12.7660   -20.1680    -5.2430 hn         1 GR7       0.335500
     54 H10         14.0380   -23.4720    -2.9280 h1         1 GR7       0.085700
     55 H11         12.2420   -24.1380    -1.4750 h1         1 GR7       0.062200
     56 H12         11.7710   -22.4510    -1.8060 h1         1 GR7       0.062200
     57 H13         10.9250   -25.8230    -3.5200 h2         1 GR7       0.081700
     58 H14         11.0880   -22.8190    -5.8310 h1         1 GR7       0.057200
     59 H15         10.8570   -24.1220    -7.0180 h1         1 GR7       0.057200
     60 H16         12.8400   -25.2800    -6.2600 hc         1 GR7       0.067200
     61 H17         13.3830   -23.6170    -6.0810 hc         1 GR7       0.067200
     62 H18         13.2560   -25.4310    -3.9520 hc         1 GR7       0.076700
     63 H19         14.9580   -19.1150    -8.1000 hc         1 GR7       0.070700
     64 H20         13.2730   -19.1690    -7.5970 hc         1 GR7       0.070700
     65 H22         11.7680   -23.2620    -9.2880 ha         1 GR7       0.112500
     66 H23         13.8010   -24.6220    -9.6900 ha         1 GR7       0.111000
     67 H24         16.0270   -23.7010    -9.1020 ha         1 GR7       0.112500
     68 H25         16.2150   -21.4430    -8.1290 ha         1 GR7       0.115000
     69 H26         23.0390   -12.3790    -6.3160 h1         1 GR7       0.049033
     70 H27         22.7360   -13.8050    -5.2900 h1         1 GR7       0.049033
     71 H28         23.4560   -14.0060    -6.9110 h1         1 GR7       0.049033
     72 H29         18.9460   -17.9380    -4.7890 h1         1 GR7       0.043700
     73 H30         17.3670   -17.9470    -4.0610 h1         1 GR7       0.043700
     74 H31         17.2960   -20.4430    -4.2050 hc         1 GR7       0.073200
     75 H32         18.8680   -20.4320    -4.9730 hc         1 GR7       0.073200
     76 H33         19.3230   -18.8750    -2.6830 hc         1 GR7       0.038700
     77 H34         18.1840   -20.0620    -2.0860 hc         1 GR7       0.038700
     78 H35         19.7150   -21.8930    -2.8280 hc         1 GR7       0.051200
     79 H36         20.4900   -20.7830    -1.7060 hc         1 GR7       0.051200
     80 H37         20.6690   -18.9720    -5.7400 h1         1 GR7       0.063700
     81 H38         21.6580   -18.9250    -7.1840 h1         1 GR7       0.063700
     82 H39         23.0770   -20.0700    -5.4840 h1         1 GR7       0.054200
     83 H40         23.9460   -18.9540    -4.4090 h1         1 GR7       0.054200
     84 H41         21.9920   -18.8980    -2.8380 ha         1 GR7       0.175000
     85 H42         21.2120   -21.2680    -4.5960 ha         1 GR7       0.177000
     86 H21         11.9620   -21.0100    -8.2980 ha         1 GR7       0.115000
@<TRIPOS>BOND
     1     1     2 ar  
     2     1     6 ar  
     3     1    34 1   
     4     2     3 ar  
     5     2    45 1   
     6     3     4 ar  
     7     3    40 1   
     8     4     5 ar  
     9     4     7 1   
    10     5     6 ar  
    11     5    46 1   
    12     6    47 1   
    13     7     8 2   
    14     7     9 2   
    15     7    10 1   
    16    10    11 1   
    17    10    36 1   
    18    11    12 1   
    19    11    48 1   
    20    11    49 1   
    21    12    13 1   
    22    12    14 1   
    23    12    50 1   
    24    13    51 1   
    25    14    15 1   
    26    14    27 1   
    27    14    52 1   
    28    15    16 1   
    29    15    53 1   
    30    16    17 2   
    31    16    18 1   
    32    18    19 1   
    33    19    20 1   
    34    19    26 1   
    35    19    54 1   
    36    20    21 1   
    37    20    55 1   
    38    20    56 1   
    39    21    22 1   
    40    22    23 1   
    41    22    26 1   
    42    22    57 1   
    43    23    24 1   
    44    24    25 1   
    45    24    58 1   
    46    24    59 1   
    47    25    26 1   
    48    25    60 1   
    49    25    61 1   
    50    26    62 1   
    51    27    33 1   
    52    27    63 1   
    53    27    64 1   
    54    28    29 ar  
    55    28    33 ar  
    56    28    86 1   
    57    29    30 ar  
    58    29    65 1   
    59    30    31 ar  
    60    30    66 1   
    61    31    32 ar  
    62    31    67 1   
    63    32    33 ar  
    64    32    68 1   
    65    34    35 1   
    66    35    69 1   
    67    35    70 1   
    68    35    71 1   
    69    36    37 1   
    70    36    72 1   
    71    36    73 1   
    72    37    38 1   
    73    37    74 1   
    74    37    75 1   
    75    38    39 1   
    76    38    76 1   
    77    38    77 1   
    78    39    44 1   
    79    39    78 1   
    80    39    79 1   
    81    40    41 1   
    82    40    80 1   
    83    40    81 1   
    84    41    42 1   
    85    42    43 1   
    86    42    82 1   
    87    42    83 1   
    88    43    44 2   
    89    43    84 1   
    90    44    85 1   
@<TRIPOS>SUBSTRUCTURE
     1 GR7         1 TEMP              0 ****  ****    0 ROOT
