@<TRIPOS>MOLECULE
GR8
   91    97     1     0     0
SMALL
abcg2


@<TRIPOS>ATOM
      1 S51          8.3170    -1.5180    -0.7990 ss         1 GR8      -0.028200
      2 N52          8.2600     1.0830    -0.6310 nc         1 GR8      -0.639100
      3 C53          9.0690     0.0680    -0.6150 cd         1 GR8       0.669100
      4 N54         10.3950     0.1560    -0.4810 nu         1 GR8      -0.853400
      5 C55         11.0390     1.4120    -0.2640 cx         1 GR8       0.161500
      6 C56         12.3990     1.5940    -0.8510 cx         1 GR8      -0.126900
      7 C57         11.2300     2.3310    -1.4280 cx         1 GR8      -0.126900
      8 C2           6.9700     0.6720    -0.7930 ca         1 GR8       0.199400
      9 C3           6.7770    -0.7180    -0.9020 ca         1 GR8      -0.227000
     10 C4           5.5270    -1.2830    -1.0660 ca         1 GR8       0.048000
     11 C5           4.4420    -0.4190    -1.1100 ca         1 GR8      -0.304500
     12 C6           4.5990     0.9660    -1.0080 ca         1 GR8      -0.008000
     13 C7           5.8560     1.5120    -0.8540 ca         1 GR8      -0.106000
     14 S8           2.8050    -1.0710    -1.2220 sy         1 GR8       1.189600
     15 O9           2.0000    -0.1720    -2.0380 o          1 GR8      -0.542500
     16 O10          2.9180    -2.4670    -1.6230 o          1 GR8      -0.542500
     17 N11          2.2270    -0.9730     0.3110 n3         1 GR8      -0.789500
     18 C12          2.7480    -1.9170     1.2990 c3         1 GR8       0.230800
     19 C13          3.1170    -1.2780     2.6360 c3         1 GR8      -0.074700
     20 C14          3.7120    -2.3560     3.5370 c3         1 GR8      -0.089100
     21 C15          4.0800    -0.1100     2.4660 c3         1 GR8      -0.089100
     22 C16          1.0560    -0.1620     0.5970 c3         1 GR8       0.203800
     23 C17         -0.2740    -0.8690     0.3470 c3         1 GR8       0.133300
     24 O18         -0.4760    -1.9680     1.2070 oh         1 GR8      -0.650000
     25 C19         -1.4480     0.1200     0.3880 c3         1 GR8       0.098700
     26 N20         -2.6680    -0.5810     0.0700 ns         1 GR8      -0.494900
     27 C21         -3.6300    -0.0650    -0.7220 c          1 GR8       0.646100
     28 O22         -3.5250     0.9380    -1.3950 o          1 GR8      -0.534000
     29 O23         -4.7220    -0.8370    -0.6830 os         1 GR8      -0.458100
     30 C24         -5.8640    -0.4340    -1.4260 c5         1 GR8       0.194300
     31 C25         -6.8550    -1.5990    -1.5200 c5         1 GR8      -0.048700
     32 C26         -8.1320    -0.8740    -1.9850 c5         1 GR8      -0.134700
     33 C27         -9.4830    -1.3150    -1.4030 c5         1 GR8       0.391300
     34 O28        -10.1950    -0.1410    -1.1980 os         1 GR8      -0.432000
     35 C29         -9.2790     0.8480    -0.7380 c5         1 GR8       0.156600
     36 C30         -8.0000     0.6050    -1.5360 c5         1 GR8      -0.096700
     37 C31         -6.6700     0.6980    -0.7920 c5         1 GR8      -0.098400
     38 C41         -7.0260    -2.3500    -0.1990 c6         1 GR8      -0.103400
     39 C42         -8.4000    -2.9770    -0.1300 c6         1 GR8       0.167600
     40 O43         -9.3870    -1.9660    -0.1640 os         1 GR8      -0.477000
     41 C32         -1.5720     0.8540     1.7370 c3         1 GR8      -0.064100
     42 C33         -2.5400     3.0930     1.1820 ca         1 GR8      -0.162000
     43 C34         -3.6190     3.9490     1.1170 ca         1 GR8       0.204500
     44 C35         -4.8780     3.6060     1.5720 ca         1 GR8      -0.196000
     45 C36         -5.0150     2.3440     2.1150 ca         1 GR8       0.204500
     46 C37         -3.9680     1.4480     2.2040 ca         1 GR8      -0.162000
     47 C38         -2.7160     1.8240     1.7270 ca         1 GR8      -0.028300
     48 F62         -6.2210     1.9760     2.5710 f          1 GR8      -0.172500
     49 H1          10.9280    -0.6850    -0.3290 hn         1 GR8       0.510000
     50 H2          10.8420     1.8670     0.7020 h1         1 GR8       0.091700
     51 H3          13.1240     2.1430    -0.2650 hc         1 GR8       0.081450
     52 H4          12.8130     0.7760    -1.4270 hc         1 GR8       0.081450
     53 H5          10.8540     2.0020    -2.3880 hc         1 GR8       0.081450
     54 H6          11.1410     3.3930    -1.2460 hc         1 GR8       0.081450
     55 H7           5.4020    -2.3530    -1.1560 ha         1 GR8       0.146000
     56 H8           3.7400     1.6210    -1.0470 ha         1 GR8       0.130000
     57 H9           5.9840     2.5840    -0.7800 ha         1 GR8       0.135000
     58 H10          2.0340    -2.7290     1.4540 h1         1 GR8       0.057200
     59 H11          3.6520    -2.3780     0.8950 h1         1 GR8       0.057200
     60 H12          2.2060    -0.9140     3.1250 hc         1 GR8       0.041700
     61 H13          4.6540    -2.7310     3.1290 hc         1 GR8       0.037367
     62 H14          3.9160    -1.9590     4.5320 hc         1 GR8       0.037367
     63 H15          3.0360    -3.2050     3.6500 hc         1 GR8       0.037367
     64 H16          3.6510     0.6960     1.8710 hc         1 GR8       0.037367
     65 H17          4.3550     0.3050     3.4370 hc         1 GR8       0.037367
     66 H18          4.9990    -0.4310     1.9700 hc         1 GR8       0.037367
     67 H19          1.1330     0.1560     1.6390 h1         1 GR8       0.064200
     68 H20          1.0920     0.7550     0.0090 h1         1 GR8       0.064200
     69 H21         -0.2560    -1.2890    -0.6630 h1         1 GR8       0.103700
     70 H22         -0.4100    -1.6760     2.1230 ho         1 GR8       0.437000
     71 H23         -1.2790     0.8600    -0.3970 h1         1 GR8       0.100700
     72 H24         -2.8880    -1.4020     0.6140 hn         1 GR8       0.331500
     73 H25         -5.5620    -0.1400    -2.4370 h1         1 GR8       0.068700
     74 H26         -6.5370    -2.3160    -2.2810 hc         1 GR8       0.061700
     75 H27         -8.2020    -0.9300    -3.0730 hc         1 GR8       0.066700
     76 H28        -10.0540    -1.9390    -2.1040 h2         1 GR8       0.071700
     77 H29         -9.7260     1.8260    -0.9170 h1         1 GR8       0.057700
     78 H30         -9.1010     0.7470     0.3390 h1         1 GR8       0.057700
     79 H31         -7.9820     1.2560    -2.4110 hc         1 GR8       0.064700
     80 H32         -6.8060     0.5100     0.2770 hc         1 GR8       0.065200
     81 H33         -6.1860     1.6680    -0.8940 hc         1 GR8       0.065200
     82 H34         -6.2600    -3.1220    -0.1040 hc         1 GR8       0.058700
     83 H35         -6.9110    -1.6860     0.6620 hc         1 GR8       0.058700
     84 H36         -8.5430    -3.6990    -0.9460 h1         1 GR8       0.045700
     85 H37         -8.5370    -3.5190     0.8070 h1         1 GR8       0.045700
     86 H38         -1.7140     0.1270     2.5430 hc         1 GR8       0.053200
     87 H39         -0.6440     1.3880     1.9500 hc         1 GR8       0.053200
     88 H40         -1.5740     3.4060     0.8060 ha         1 GR8       0.134500
     89 H41         -5.7110     4.2940     1.5120 ha         1 GR8       0.151000
     90 H42         -4.1270     0.4710     2.6430 ha         1 GR8       0.134500
     91 F61         -3.4470     5.1690     0.5890 f          1 GR8      -0.172500
@<TRIPOS>BOND
     1     1     3 1   
     2     1     9 1   
     3     2     3 2   
     4     2     8 1   
     5     3     4 1   
     6     4     5 1   
     7     4    49 1   
     8     5     6 1   
     9     5     7 1   
    10     5    50 1   
    11     6     7 1   
    12     6    51 1   
    13     6    52 1   
    14     7    53 1   
    15     7    54 1   
    16     8     9 ar  
    17     8    13 ar  
    18     9    10 ar  
    19    10    11 ar  
    20    10    55 1   
    21    11    12 ar  
    22    11    14 1   
    23    12    13 ar  
    24    12    56 1   
    25    13    57 1   
    26    14    15 2   
    27    14    16 2   
    28    14    17 1   
    29    17    18 1   
    30    17    22 1   
    31    18    19 1   
    32    18    58 1   
    33    18    59 1   
    34    19    20 1   
    35    19    21 1   
    36    19    60 1   
    37    20    61 1   
    38    20    62 1   
    39    20    63 1   
    40    21    64 1   
    41    21    65 1   
    42    21    66 1   
    43    22    23 1   
    44    22    67 1   
    45    22    68 1   
    46    23    24 1   
    47    23    25 1   
    48    23    69 1   
    49    24    70 1   
    50    25    26 1   
    51    25    41 1   
    52    25    71 1   
    53    26    27 1   
    54    26    72 1   
    55    27    28 2   
    56    27    29 1   
    57    29    30 1   
    58    30    31 1   
    59    30    37 1   
    60    30    73 1   
    61    31    32 1   
    62    31    38 1   
    63    31    74 1   
    64    32    33 1   
    65    32    36 1   
    66    32    75 1   
    67    33    34 1   
    68    33    40 1   
    69    33    76 1   
    70    34    35 1   
    71    35    36 1   
    72    35    77 1   
    73    35    78 1   
    74    36    37 1   
    75    36    79 1   
    76    37    80 1   
    77    37    81 1   
    78    38    39 1   
    79    38    82 1   
    80    38    83 1   
    81    39    40 1   
    82    39    84 1   
    83    39    85 1   
    84    41    47 1   
    85    41    86 1   
    86    41    87 1   
    87    42    43 ar  
    88    42    47 ar  
    89    42    88 1   
    90    43    44 ar  
    91    43    91 1   
    92    44    45 ar  
    93    44    89 1   
    94    45    46 ar  
    95    45    48 1   
    96    46    47 ar  
    97    46    90 1   
@<TRIPOS>SUBSTRUCTURE
     1 GR8         1 TEMP              0 ****  ****    0 ROOT
