@<TRIPOS>MOLECULE
GR8
   91    97     1     0     0
SMALL
No Charge or Current Charge


@<TRIPOS>ATOM
      1 S51          7.7080    -1.5840    -2.0300 ss         1 GR8      -0.028200
      2 N52          8.7610     0.5020    -0.6680 nc         1 GR8      -0.639100
      3 C53          9.0380    -0.6200    -1.3350 cd         1 GR8       0.669100
      4 N54         10.3450    -0.9960    -1.4570 nu         1 GR8      -0.853400
      5 C55         11.4980    -0.3030    -0.9500 cx         1 GR8       0.161500
      6 C56         12.8240    -0.5860    -1.6110 cx         1 GR8      -0.126900
      7 C57         12.1320     0.7340    -1.8420 cx         1 GR8      -0.126900
      8 C2           7.3750     0.6330    -0.7000 ca         1 GR8       0.199400
      9 C3           6.6580    -0.3500    -1.3610 ca         1 GR8      -0.227000
     10 C4           5.2590    -0.3260    -1.4570 ca         1 GR8       0.048000
     11 C5           4.5670     0.7450    -0.8560 ca         1 GR8      -0.304500
     12 C6           5.2830     1.7560    -0.1750 ca         1 GR8      -0.008000
     13 C7           6.6880     1.6980    -0.0990 ca         1 GR8      -0.106000
     14 S8           2.7730     0.8140    -0.9200 sy         1 GR8       1.189600
     15 O9           2.4130     2.1890    -1.2840 o          1 GR8      -0.542500
     16 O10          2.2360    -0.3450    -1.6380 o          1 GR8      -0.542500
     17 N11          2.3490     0.6490     0.7220 n3         1 GR8      -0.789500
     18 C12          2.8620    -0.5880     1.3650 c3         1 GR8       0.230800
     19 C13          2.9120    -0.5510     2.9180 c3         1 GR8      -0.074700
     20 C14          3.4130    -1.8980     3.4860 c3         1 GR8      -0.089100
     21 C15          3.7690     0.6250     3.4460 c3         1 GR8      -0.089100
     22 C16          0.9470     1.0400     1.0560 c3         1 GR8       0.203800
     23 C17         -0.2070     0.0810     0.5990 c3         1 GR8       0.133300
     24 O18         -0.2540    -1.1270     1.3970 oh         1 GR8      -0.650000
     25 C19         -1.6060     0.7730     0.6020 c3         1 GR8       0.098700
     26 N20         -2.6250    -0.1360     0.0610 ns         1 GR8      -0.494900
     27 C21         -3.6100     0.2210    -0.8140 c          1 GR8       0.646100
     28 O22         -3.7070     1.3140    -1.3520 o          1 GR8      -0.534000
     29 O23         -4.4610    -0.8360    -0.9560 os         1 GR8      -0.458100
     30 C24         -5.6750    -0.5420    -1.6930 c5         1 GR8       0.194300
     31 C25         -6.4900    -1.8650    -1.8630 c5         1 GR8      -0.048700
     32 C26         -7.8830    -1.2560    -2.2640 c5         1 GR8      -0.134700
     33 C27         -9.1340    -2.0690    -1.7420 c5         1 GR8       0.391300
     34 O28        -10.0030    -1.0320    -1.2520 os         1 GR8      -0.432000
     35 C29         -9.1620    -0.0900    -0.5480 c5         1 GR8       0.156600
     36 C30         -7.9890     0.1240    -1.5480 c5         1 GR8      -0.096700
     37 C31         -6.6350     0.2980    -0.7900 c5         1 GR8      -0.098400
     38 C41         -6.4620    -2.8340    -0.6490 c6         1 GR8      -0.103400
     39 C42         -7.6830    -3.7500    -0.6750 c6         1 GR8       0.167600
     40 O43         -8.8460    -2.9190    -0.6030 os         1 GR8      -0.477000
     41 C32         -2.0560     1.3250     1.9860 c3         1 GR8      -0.064100
     42 C33         -3.6450     3.2300     1.4160 ca         1 GR8      -0.162000
     43 C34         -4.9330     3.7850     1.3590 ca         1 GR8       0.204500
     44 C35         -6.0380     3.0690     1.8400 ca         1 GR8      -0.196000
     45 C36         -5.8460     1.7910     2.3810 ca         1 GR8       0.204500
     46 C37         -4.5620     1.2270     2.4380 ca         1 GR8      -0.162000
     47 C38         -3.4500     1.9440     1.9540 ca         1 GR8      -0.028300
     48 F62         -6.9070     1.0930     2.8400 f          1 GR8      -0.172500
     49 H1          10.4510    -1.8810    -1.9500 hn         1 GR8       0.510000
     50 H2          11.4960    -0.1190     0.1270 h1         1 GR8       0.091700
     51 H3          13.7080    -0.5910    -0.9780 hc         1 GR8       0.081450
     52 H4          12.8500    -1.2940    -2.4350 hc         1 GR8       0.081450
     53 H5          11.6830     0.9110    -2.8160 hc         1 GR8       0.081450
     54 H6          12.5480     1.6180    -1.3640 hc         1 GR8       0.081450
     55 H7           4.7300    -1.1210    -1.9810 ha         1 GR8       0.146000
     56 H8           4.7520     2.5790     0.3010 ha         1 GR8       0.130000
     57 H9           7.2390     2.4730     0.4260 ha         1 GR8       0.135000
     58 H10          2.2710    -1.4550     1.0440 h1         1 GR8       0.057200
     59 H11          3.8900    -0.7890     1.0350 h1         1 GR8       0.057200
     60 H12          1.8920    -0.4150     3.2950 hc         1 GR8       0.041700
     61 H13          4.4400    -2.1030     3.1590 hc         1 GR8       0.037367
     62 H14          3.3980    -1.8870     4.5830 hc         1 GR8       0.037367
     63 H15          2.7740    -2.7230     3.1480 hc         1 GR8       0.037367
     64 H16          3.3610     1.5880     3.1150 hc         1 GR8       0.037367
     65 H17          3.7880     0.6290     4.5430 hc         1 GR8       0.037367
     66 H18          4.8010     0.5490     3.0840 hc         1 GR8       0.037367
     67 H19          0.8580     1.1860     2.1390 h1         1 GR8       0.064200
     68 H20          0.7430     2.0300     0.6250 h1         1 GR8       0.064200
     69 H21         -0.0130    -0.1880    -0.4480 h1         1 GR8       0.103700
     70 H22         -0.3510    -0.8610     2.3360 ho         1 GR8       0.437000
     71 H23         -1.5340     1.6320    -0.0800 h1         1 GR8       0.100700
     72 H24         -2.6630    -1.0850     0.4090 hn         1 GR8       0.331500
     73 H25         -5.4540    -0.0640    -2.6590 h1         1 GR8       0.068700
     74 H26         -6.0910    -2.4540    -2.6980 hc         1 GR8       0.061700
     75 H27         -7.9450    -1.1220    -3.3500 hc         1 GR8       0.066700
     76 H28         -9.6110    -2.6490    -2.5430 h2         1 GR8       0.071700
     77 H29         -9.7170     0.8330    -0.3370 h1         1 GR8       0.057700
     78 H30         -8.8420    -0.5370     0.4040 h1         1 GR8       0.057700
     79 H31         -8.1880     0.9360    -2.2570 hc         1 GR8       0.064700
     80 H32         -6.6630    -0.0760     0.2380 hc         1 GR8       0.065200
     81 H33         -6.3420     1.3520    -0.7360 hc         1 GR8       0.065200
     82 H34         -5.5420    -3.4340    -0.6670 hc         1 GR8       0.058700
     83 H35         -6.4540    -2.2910     0.3040 hc         1 GR8       0.058700
     84 H36         -7.7100    -4.3530    -1.5940 h1         1 GR8       0.045700
     85 H37         -7.6690    -4.4260     0.1920 h1         1 GR8       0.045700
     86 H38         -2.0290     0.5180     2.7280 hc         1 GR8       0.053200
     87 H39         -1.3380     2.0790     2.3300 hc         1 GR8       0.053200
     88 H40         -2.8020     3.7980     1.0310 ha         1 GR8       0.134500
     89 H41         -7.0330     3.5010     1.7930 ha         1 GR8       0.151000
     90 H42         -4.4370     0.2290     2.8500 ha         1 GR8       0.134500
     91 F61         -5.1110     5.0170     0.8350 f          1 GR8      -0.172500
@<TRIPOS>BOND
     1     1     3 1   
     2     1     9 1   
     3     2     3 2   
     4     2     8 1   
     5     3     4 1   
     6     4     5 1   
     7     4    49 1   
     8     5     6 1   
     9     5     7 1   
    10     5    50 1   
    11     6     7 1   
    12     6    51 1   
    13     6    52 1   
    14     7    53 1   
    15     7    54 1   
    16     8     9 ar  
    17     8    13 ar  
    18     9    10 ar  
    19    10    11 ar  
    20    10    55 1   
    21    11    12 ar  
    22    11    14 1   
    23    12    13 ar  
    24    12    56 1   
    25    13    57 1   
    26    14    15 2   
    27    14    16 2   
    28    14    17 1   
    29    17    18 1   
    30    17    22 1   
    31    18    19 1   
    32    18    58 1   
    33    18    59 1   
    34    19    20 1   
    35    19    21 1   
    36    19    60 1   
    37    20    61 1   
    38    20    62 1   
    39    20    63 1   
    40    21    64 1   
    41    21    65 1   
    42    21    66 1   
    43    22    23 1   
    44    22    67 1   
    45    22    68 1   
    46    23    24 1   
    47    23    25 1   
    48    23    69 1   
    49    24    70 1   
    50    25    26 1   
    51    25    41 1   
    52    25    71 1   
    53    26    27 1   
    54    26    72 1   
    55    27    28 2   
    56    27    29 1   
    57    29    30 1   
    58    30    31 1   
    59    30    37 1   
    60    30    73 1   
    61    31    32 1   
    62    31    38 1   
    63    31    74 1   
    64    32    33 1   
    65    32    36 1   
    66    32    75 1   
    67    33    34 1   
    68    33    40 1   
    69    33    76 1   
    70    34    35 1   
    71    35    36 1   
    72    35    77 1   
    73    35    78 1   
    74    36    37 1   
    75    36    79 1   
    76    37    80 1   
    77    37    81 1   
    78    38    39 1   
    79    38    82 1   
    80    38    83 1   
    81    39    40 1   
    82    39    84 1   
    83    39    85 1   
    84    41    47 1   
    85    41    86 1   
    86    41    87 1   
    87    42    43 ar  
    88    42    47 ar  
    89    42    88 1   
    90    43    44 ar  
    91    43    91 1   
    92    44    45 ar  
    93    44    89 1   
    94    45    46 ar  
    95    45    48 1   
    96    46    47 ar  
    97    46    90 1   
@<TRIPOS>SUBSTRUCTURE
     1 GR8         1 TEMP              0 ****  ****    0 ROOT
