@<TRIPOS>MOLECULE
GR9
   55    58     1     0     0
SMALL
No Charge or Current Charge


@<TRIPOS>ATOM
      1 C1           6.6680    -1.4590     0.9130 c6         1 GR9       0.133300
      2 N2           6.1680    -1.4250     2.3230 n3         1 GR9      -0.707600
      3 C3           7.1770    -0.9170     3.2770 c3         1 GR9       0.150100
      4 C4           4.8680    -0.6900     2.4060 c6         1 GR9       0.133300
      5 C5           3.8060    -1.2590     1.4100 c6         1 GR9       0.206300
      6 N6           4.2950    -1.2800    -0.0020 n3         1 GR9      -0.746500
      7 S7           4.2010     0.1750    -0.8870 sy         1 GR9       1.169600
      8 O8           5.1630     1.1220    -0.3130 o          1 GR9      -0.535500
      9 O9           4.2460    -0.2230    -2.2980 o          1 GR9      -0.535500
     10 C10          2.5200     0.7290    -0.5440 ca         1 GR9      -0.299500
     11 C11          2.2860     1.8400     0.2880 ca         1 GR9      -0.016500
     12 C12          0.9700     2.2550     0.5570 ca         1 GR9      -0.120000
     13 C13         -0.1510     1.5760     0.0070 cp         1 GR9      -0.065500
     14 C14          0.1160     0.4530    -0.8250 ca         1 GR9      -0.120000
     15 C15          1.4290     0.0350    -1.0980 ca         1 GR9      -0.016500
     16 C16         -1.5650     2.0200     0.2950 cp         1 GR9       0.263500
     17 C17         -1.8870     3.3300     0.7930 ca         1 GR9       0.404900
     18 N18         -3.1600     3.7470     1.0520 nb         1 GR9      -0.746000
     19 C19         -4.1110     2.8430     0.8060 ca         1 GR9       0.645900
     20 C20         -3.8480     1.5210     0.3160 ca         1 GR9       0.152500
     21 N21         -2.5590     1.1170     0.0550 nb         1 GR9      -0.614000
     22 C22         -4.9900     0.5410     0.0950 c          1 GR9       0.537600
     23 O23         -6.1560     0.7920     0.3940 o          1 GR9      -0.618100
     24 N24         -4.5920    -0.6720    -0.4580 ns         1 GR9      -0.118000
     25 C25         -5.3100    -1.8480    -0.8260 ca         1 GR9      -0.071000
     26 C26         -6.7120    -1.9820    -0.7140 ca         1 GR9      -0.100000
     27 C27         -7.3020    -3.1940    -1.1130 ca         1 GR9      -0.137000
     28 C28         -6.4890    -4.2280    -1.6070 ca         1 GR9       0.307900
     29 N29         -5.1460    -4.1130    -1.7210 nb         1 GR9      -0.642000
     30 C30         -4.5800    -2.9440    -1.3370 ca         1 GR9       0.290900
     31 N31         -5.3050     3.3940     1.0890 nv         1 GR9      -1.048900
     32 C6           5.5950    -2.0080    -0.0870 c6         1 GR9       0.206300
     33 H11C         6.9770    -0.4530     0.5950 h1         1 GR9       0.040950
     34 H12C         7.5610    -2.0970     0.8460 h1         1 GR9       0.040950
     35 H61C         6.0020    -1.9830    -1.1090 h1         1 GR9       0.075450
     36 H62C         5.4340    -3.0690     0.1520 h1         1 GR9       0.075450
     37 H31C         7.4370     0.1270     3.0530 h1         1 GR9       0.034367
     38 H32C         6.7960    -0.9640     4.3060 h1         1 GR9       0.034367
     39 H33C         8.0940    -1.5180     3.2280 h1         1 GR9       0.034367
     40 H41C         4.4600    -0.7590     3.4250 h1         1 GR9       0.040950
     41 H42C         5.0200     0.3790     2.1990 h1         1 GR9       0.040950
     42 H51C         3.5790    -2.2870     1.7280 h1         1 GR9       0.075450
     43 H52C         2.8660    -0.7000     1.5180 h1         1 GR9       0.075450
     44 H11          3.1170     2.3850     0.7340 ha         1 GR9       0.136500
     45 H15          1.5940    -0.8310    -1.7370 ha         1 GR9       0.136500
     46 H12          0.8330     3.1070     1.2170 ha         1 GR9       0.121000
     47 H14         -0.7040    -0.1030    -1.2720 ha         1 GR9       0.121000
     48 H17         -1.1080     4.0680     0.9730 h4         1 GR9       0.032100
     49 H311        -5.2760     4.1940     1.7100 hn         1 GR9       0.523000
     50 H312        -6.0930     2.7560     1.1830 hn         1 GR9       0.523000
     51 H24         -3.5940    -0.7230    -0.6300 hn         1 GR9       0.183000
     52 H26         -7.3440    -1.1840    -0.3350 ha         1 GR9       0.150000
     53 H30         -3.4970    -2.8850    -1.4420 h4         1 GR9       0.016100
     54 H27         -8.3760    -3.3370    -1.0430 ha         1 GR9       0.125000
     55 H28         -6.9250    -5.1750    -1.9220 h4         1 GR9       0.023100
@<TRIPOS>BOND
     1     1     2 1   
     2     1    32 1   
     3     1    33 1   
     4     1    34 1   
     5     2     3 1   
     6     2     4 1   
     7     3    37 1   
     8     3    38 1   
     9     3    39 1   
    10     4     5 1   
    11     4    40 1   
    12     4    41 1   
    13     5     6 1   
    14     5    42 1   
    15     5    43 1   
    16     6     7 1   
    17     6    32 1   
    18     7     8 2   
    19     7     9 2   
    20     7    10 1   
    21    10    11 ar  
    22    10    15 ar  
    23    11    12 ar  
    24    11    44 1   
    25    12    13 ar  
    26    12    46 1   
    27    13    14 ar  
    28    13    16 1   
    29    14    15 ar  
    30    14    47 1   
    31    15    45 1   
    32    16    17 ar  
    33    16    21 ar  
    34    17    18 ar  
    35    17    48 1   
    36    18    19 ar  
    37    19    20 ar  
    38    19    31 1   
    39    20    21 ar  
    40    20    22 1   
    41    22    23 2   
    42    22    24 1   
    43    24    25 1   
    44    24    51 1   
    45    25    26 ar  
    46    25    30 ar  
    47    26    27 ar  
    48    26    52 1   
    49    27    28 ar  
    50    27    54 1   
    51    28    29 ar  
    52    28    55 1   
    53    29    30 ar  
    54    30    53 1   
    55    31    49 1   
    56    31    50 1   
    57    32    35 1   
    58    32    36 1   
@<TRIPOS>SUBSTRUCTURE
     1 GR9         1 TEMP              0 ****  ****    0 ROOT
