@<TRIPOS>MOLECULE
GR9
   55    58     1     0     0
SMALL
bcc


@<TRIPOS>ATOM
      1 C1           5.0800    -0.1530     1.6960 c6         1 GR9       0.133300
      2 N2           4.6240    -1.3970     2.2810 n3         1 GR9      -0.707600
      3 C3           3.9860    -1.1790     3.5600 c3         1 GR9       0.150100
      4 C4           3.7550    -2.1080     1.3660 c6         1 GR9       0.133300
      5 C5           4.4780    -2.4110     0.0640 c6         1 GR9       0.206300
      6 N6           5.0460    -1.2070    -0.5390 n3         1 GR9      -0.746500
      7 S7           4.2950    -0.4980    -1.8130 sy         1 GR9       1.311200
      8 O8           5.1630     0.5740    -2.2730 o          1 GR9      -0.606300
      9 O9           3.9200    -1.5630    -2.7310 o          1 GR9      -0.606300
     10 C10          2.7940     0.2340    -1.2250 ca         1 GR9      -0.299500
     11 C11          2.7990     1.5410    -0.7580 ca         1 GR9      -0.034500
     12 C12          1.6370     2.0840    -0.2380 ca         1 GR9      -0.138000
     13 C13          0.4590     1.3360    -0.1710 cp         1 GR9      -0.065500
     14 C14          0.4770     0.0270    -0.6610 ca         1 GR9      -0.138000
     15 C15          1.6300    -0.5220    -1.1900 ca         1 GR9      -0.034500
     16 C16         -0.7840     1.8950     0.3840 cp         1 GR9       0.263500
     17 C17         -0.8520     3.1160     1.0680 ca         1 GR9       0.404900
     18 N18         -1.9720     3.6000     1.5490 nb         1 GR9      -0.746000
     19 C19         -3.1060     2.9020     1.3880 ca         1 GR9       0.645900
     20 C20         -3.0460     1.6480     0.7210 ca         1 GR9       0.152500
     21 N21         -1.9020     1.2000     0.2480 nb         1 GR9      -0.614000
     22 C22         -4.2440     0.7830     0.5310 c          1 GR9       0.604600
     23 O23         -5.3540     1.1170     0.9190 o          1 GR9      -0.618100
     24 N24         -3.9720    -0.3820    -0.0970 ns         1 GR9      -0.444100
     25 C25         -4.8320    -1.4230    -0.4250 ca         1 GR9      -0.043700
     26 C26         -6.1910    -1.4820    -0.1230 ca         1 GR9      -0.118000
     27 C27         -6.9020    -2.6040    -0.5220 ca         1 GR9      -0.220300
     28 C28         -6.2550    -3.6220    -1.2010 ca         1 GR9       0.373200
     29 N29         -4.9590    -3.5710    -1.4910 nb         1 GR9      -0.642000
     30 C30         -4.2750    -2.5070    -1.1150 ca         1 GR9       0.356200
     31 N31         -4.2220     3.4410     1.8750 nv         1 GR9      -0.938500
     32 C6           5.8320    -0.4120     0.4030 c6         1 GR9       0.206300
     33 H11C         4.2470     0.5480     1.5140 h1         1 GR9       0.040950
     34 H12C         5.7600     0.3420     2.3940 h1         1 GR9       0.040950
     35 H61C         6.1400     0.5240    -0.0560 h1         1 GR9       0.075450
     36 H62C         6.7420    -0.9790     0.6170 h1         1 GR9       0.075450
     37 H31C         3.0880    -0.5450     3.4950 h1         1 GR9       0.034367
     38 H32C         3.6880    -2.1340     3.9950 h1         1 GR9       0.034367
     39 H33C         4.6850    -0.7000     4.2470 h1         1 GR9       0.034367
     40 H41C         3.4550    -3.0560     1.8200 h1         1 GR9       0.040950
     41 H42C         2.8280    -1.5470     1.1570 h1         1 GR9       0.040950
     42 H51C         5.3060    -3.0980     0.2540 h1         1 GR9       0.075450
     43 H52C         3.8090    -2.9090    -0.6360 h1         1 GR9       0.075450
     44 H11          3.6930     2.1480    -0.8030 ha         1 GR9       0.154500
     45 H15          1.6090    -1.5350    -1.5690 ha         1 GR9       0.154500
     46 H12          1.6670     3.1110     0.1000 ha         1 GR9       0.139000
     47 H14         -0.4210    -0.5730    -0.6330 ha         1 GR9       0.139000
     48 H17          0.0330     3.7160     1.2390 h4         1 GR9       0.032100
     49 H311        -4.1730     4.3270     2.3500 hn         1 GR9       0.467800
     50 H312        -5.1030     2.9630     1.7970 hn         1 GR9       0.467800
     51 H24         -3.0010    -0.4970    -0.3610 hn         1 GR9       0.349500
     52 H26         -6.6890    -0.6860     0.4050 ha         1 GR9       0.168000
     53 H30         -3.2170    -2.4940    -1.3660 h4         1 GR9       0.016100
     54 H27         -7.9580    -2.6820    -0.3010 ha         1 GR9       0.143000
     55 H28         -6.7940    -4.5050    -1.5210 h4         1 GR9       0.023100
@<TRIPOS>BOND
     1     1     2 1   
     2     1    32 1   
     3     1    33 1   
     4     1    34 1   
     5     2     3 1   
     6     2     4 1   
     7     3    37 1   
     8     3    38 1   
     9     3    39 1   
    10     4     5 1   
    11     4    40 1   
    12     4    41 1   
    13     5     6 1   
    14     5    42 1   
    15     5    43 1   
    16     6     7 1   
    17     6    32 1   
    18     7     8 2   
    19     7     9 2   
    20     7    10 1   
    21    10    11 ar  
    22    10    15 ar  
    23    11    12 ar  
    24    11    44 1   
    25    12    13 ar  
    26    12    46 1   
    27    13    14 ar  
    28    13    16 1   
    29    14    15 ar  
    30    14    47 1   
    31    15    45 1   
    32    16    17 ar  
    33    16    21 ar  
    34    17    18 ar  
    35    17    48 1   
    36    18    19 ar  
    37    19    20 ar  
    38    19    31 1   
    39    20    21 ar  
    40    20    22 1   
    41    22    23 2   
    42    22    24 1   
    43    24    25 1   
    44    24    51 1   
    45    25    26 ar  
    46    25    30 ar  
    47    26    27 ar  
    48    26    52 1   
    49    27    28 ar  
    50    27    54 1   
    51    28    29 ar  
    52    28    55 1   
    53    29    30 ar  
    54    30    53 1   
    55    31    49 1   
    56    31    50 1   
    57    32    35 1   
    58    32    36 1   
@<TRIPOS>SUBSTRUCTURE
     1 GR9         1 TEMP              0 ****  ****    0 ROOT
