@<TRIPOS>MOLECULE
GRC
   45    47     1     0     0
SMALL
bcc


@<TRIPOS>ATOM
      1 N1           9.7340     8.3320     8.5250 ns         1 GRC      -0.527400
      2 C2           8.5600     8.3660     7.8280 cc         1 GRC       0.662800
      3 N2           8.6440     8.5680     6.5020 nv         1 GRC      -0.955800
      4 N3           7.3880     8.2480     8.3990 nd         1 GRC      -0.658100
      5 C4           7.4650     8.0920     9.7310 cd         1 GRC       0.051800
      6 C5           8.5940     8.0400    10.5270 cc         1 GRC       0.176800
      7 C6           9.8720     8.1680     9.9100 c          1 GRC       0.662000
      8 O6          10.9790     8.1490    10.4210 o          1 GRC      -0.640500
      9 N7           8.2490     7.8540    11.8400 nc         1 GRC      -0.623000
     10 C8           6.9500     7.7930    11.8350 cd         1 GRC       0.495400
     11 N9           6.4160     7.9360    10.5790 na         1 GRC      -0.189900
     12 PA           4.6730     5.5550    14.9280 p5         1 GRC       1.500800
     13 PB           3.8390     2.8820    13.6470 p5         1 GRC       1.409600
     14 PG           4.9720     1.1690    16.1770 p5         1 GRC       1.178700
     15 C1           5.0100     7.8990    10.1680 c5         1 GRC       0.261800
     16 O1A          3.4680     5.5830    15.8120 o          1 GRC      -0.842500
     17 O1B          3.8990     2.8300    12.1250 o          1 GRC      -0.876000
     18 O1G          5.0930     2.5570    16.8080 o          1 GRC      -0.941167
     19 C7           4.6170     6.5470     9.5860 c5         1 GRC      -0.142400
     20 O2A          6.0480     5.8380    15.4410 o          1 GRC      -0.842500
     21 O2B          2.4850     2.9220    14.2880 o          1 GRC      -0.876000
     22 O2G          6.2320     0.3110    16.3080 o          1 GRC      -0.941167
     23 C3           4.1150     5.8000    10.8170 c5         1 GRC       0.164100
     24 O3           3.2700     4.7390    10.5200 oh         1 GRC      -0.703800
     25 O3A          4.7690     4.1790    14.0510 os         1 GRC      -0.744800
     26 C3B          4.9290     1.5600    14.3090 c3         1 GRC      -0.173700
     27 CL1          4.5420     0.0350    13.3790 cl         1 GRC      -0.376400
     28 O3G          3.6720     0.4330    16.4890 o          1 GRC      -0.941167
     29 C9           3.4160     6.9430    11.5590 c5         1 GRC       0.081100
     30 O4           4.2040     8.1050    11.2900 os         1 GRC      -0.411600
     31 C10          3.2210     6.7570    13.0450 c3         1 GRC       0.221400
     32 O5           4.4580     6.6440    13.7020 os         1 GRC      -0.600200
     33 H1          10.6000     8.4400     8.0120 hn         1 GRC       0.287500
     34 H2           7.8060     8.4240     5.9640 hn         1 GRC       0.417800
     35 H3           9.5110     8.4110     6.0150 hn         1 GRC       0.417800
     36 H4           6.3290     7.6410    12.7030 h5         1 GRC       0.149100
     37 H5           4.8790     8.7140     9.4530 h2         1 GRC       0.039700
     38 H8           3.7960     6.6850     8.8780 hc         1 GRC       0.044700
     39 H9           5.4370     6.0560     9.0620 hc         1 GRC       0.044700
     40 H12          4.9800     5.4710    11.4090 h1         1 GRC       0.097700
     41 H13          3.4640     3.9980    11.1630 ho         1 GRC       0.531000
     42 H14          5.9440     1.8130    13.9960 h1         1 GRC       0.044700
     43 H15          2.4170     7.0750    11.1170 h1         1 GRC       0.012700
     44 H16          2.6550     7.6020    13.4540 h1         1 GRC       0.026200
     45 H17          2.5860     5.8720    13.1720 h1         1 GRC       0.026200
@<TRIPOS>BOND
     1     1     2 1   
     2     1     7 1   
     3     1    33 1   
     4     2     3 1   
     5     2     4 2   
     6     3    34 1   
     7     3    35 1   
     8     4     5 1   
     9     5     6 2   
    10     5    11 1   
    11     6     7 1   
    12     6     9 1   
    13     7     8 2   
    14     9    10 2   
    15    10    11 1   
    16    10    36 1   
    17    11    15 1   
    18    12    16 1   
    19    12    20 1   
    20    12    25 1   
    21    12    32 1   
    22    13    17 1   
    23    13    21 1   
    24    13    25 1   
    25    13    26 1   
    26    14    18 1   
    27    14    22 1   
    28    14    26 1   
    29    14    28 1   
    30    15    19 1   
    31    15    30 1   
    32    15    37 1   
    33    19    23 1   
    34    19    38 1   
    35    19    39 1   
    36    23    24 1   
    37    23    29 1   
    38    23    40 1   
    39    24    41 1   
    40    26    27 1   
    41    26    42 1   
    42    29    30 1   
    43    29    31 1   
    44    29    43 1   
    45    31    32 1   
    46    31    44 1   
    47    31    45 1   
@<TRIPOS>SUBSTRUCTURE
     1 GRC         1 TEMP              0 ****  ****    0 ROOT
