@<TRIPOS>MOLECULE
GRC
   45    47     1     0     0
SMALL
No Charge or Current Charge


@<TRIPOS>ATOM
      1 N1           9.9450     7.4850     8.9890 ns         1 GRC      -0.460400
      2 C2           8.8350     7.5610     8.2170 cc         1 GRC       0.662800
      3 N2           9.0500     7.5920     6.9120 nv         1 GRC      -1.066200
      4 N3           7.5830     7.6020     8.6190 nd         1 GRC      -0.658100
      5 C4           7.4600     7.5560    10.0090 cd         1 GRC       0.066400
      6 C5           8.5220     7.4810    10.8700 cc         1 GRC       0.111500
      7 C6           9.9140     7.4420    10.3500 c          1 GRC       0.519500
      8 O6          10.9390     7.3810    11.0190 o          1 GRC      -0.565000
      9 N7           8.0880     7.4590    12.1750 nc         1 GRC      -0.623000
     10 C8           6.7520     7.5180    12.1060 cd         1 GRC       0.495400
     11 N9           6.3210     7.5800    10.7810 na         1 GRC      -0.168500
     12 PA           3.8750     5.8410    15.1120 p5         1 GRC       1.500800
     13 PB           4.0220     3.4220    14.0400 p5         1 GRC       1.567400
     14 PG           6.4740     2.0320    14.3220 p5         1 GRC       1.336500
     15 C1           4.9430     7.6740    10.3080 c5         1 GRC       0.314300
     16 O1A          2.5230     5.4160    15.5770 o          1 GRC      -0.842500
     17 O1B          2.8590     3.5630    13.1010 o          1 GRC      -0.876000
     18 O1G          6.7570     3.0160    15.4040 o          1 GRC      -0.941167
     19 C7           4.3220     6.3390     9.8030 c5         1 GRC      -0.142400
     20 O2A          4.7180     6.2990    16.2550 o          1 GRC      -0.842500
     21 O2B          3.6660     2.7020    15.3030 o          1 GRC      -0.876000
     22 O2G          7.7540     1.7370    13.6120 o          1 GRC      -0.941167
     23 C3           3.7370     5.7790    11.1160 c5         1 GRC       0.187300
     24 O3           2.7920     4.7250    10.8890 oh         1 GRC      -0.826000
     25 O3A          4.6840     4.8400    14.2090 os         1 GRC      -0.744800
     26 C3B          5.3300     2.6300    13.0400 c3         1 GRC      -0.412700
     27 Cl1          4.8400     1.4350    11.6750 cl         1 GRC      -0.453000
     28 O3G          5.9830     0.7390    14.8830 o          1 GRC      -0.941167
     29 C9           3.0920     7.0890    11.6470 c5         1 GRC       0.104300
     30 O4           4.1020     8.1020    11.4070 os         1 GRC      -0.458000
     31 C10          2.6230     7.0760    13.1300 c3         1 GRC       0.244600
     32 O5           3.7440     7.0330    14.0340 os         1 GRC      -0.623400
     33 H1          10.8520     7.4800     8.5530 hn         1 GRC       0.287500
     34 H2           8.2180     7.4420     6.3530 hn         1 GRC       0.473000
     35 H3           9.8960     7.1550     6.5680 hn         1 GRC       0.473000
     36 H4           6.0590     7.5260    12.9410 h5         1 GRC       0.149100
     37 H5           4.9450     8.4310     9.5140 h2         1 GRC       0.039700
     38 H8           3.5440     6.5270     9.0530 hc         1 GRC       0.044700
     39 H9           5.0630     5.6710     9.3490 hc         1 GRC       0.044700
     40 H12          4.5500     5.4480    11.7780 h1         1 GRC       0.097700
     41 H13          2.7570     4.2010    11.7730 ho         1 GRC       0.630000
     42 H14          5.8510     3.4530    12.5420 h1         1 GRC       0.044700
     43 H15          2.2200     7.3450    11.0290 h1         1 GRC       0.012700
     44 H16          2.0390     7.9870    13.3130 h1         1 GRC       0.026200
     45 H17          1.9450     6.2250    13.2680 h1         1 GRC       0.026200
@<TRIPOS>BOND
     1     1     2 1   
     2     1     7 1   
     3     1    33 1   
     4     2     3 1   
     5     2     4 2   
     6     3    34 1   
     7     3    35 1   
     8     4     5 1   
     9     5     6 2   
    10     5    11 1   
    11     6     7 1   
    12     6     9 1   
    13     7     8 2   
    14     9    10 2   
    15    10    11 1   
    16    10    36 1   
    17    11    15 1   
    18    12    16 1   
    19    12    20 1   
    20    12    25 1   
    21    12    32 1   
    22    13    17 1   
    23    13    21 1   
    24    13    25 1   
    25    13    26 1   
    26    14    18 1   
    27    14    22 1   
    28    14    26 1   
    29    14    28 1   
    30    15    19 1   
    31    15    30 1   
    32    15    37 1   
    33    19    23 1   
    34    19    38 1   
    35    19    39 1   
    36    23    24 1   
    37    23    29 1   
    38    23    40 1   
    39    24    41 1   
    40    26    27 1   
    41    26    42 1   
    42    29    30 1   
    43    29    31 1   
    44    29    43 1   
    45    31    32 1   
    46    31    44 1   
    47    31    45 1   
@<TRIPOS>SUBSTRUCTURE
     1 GRC         1 TEMP              0 ****  ****    0 ROOT
