@<TRIPOS>MOLECULE
GRD
   78    80     1     0     0
SMALL
No Charge or Current Charge


@<TRIPOS>ATOM
      1 C4           7.2090    -1.2080    -0.6550 ca         1 GRD       0.123500
      2 C5           7.4870    -2.5380    -0.8560 ca         1 GRD      -0.101600
      3 C6           7.9370    -2.9320    -2.1330 ca         1 GRD       0.452900
      4 C8           6.8480    -2.4130     1.2020 cc         1 GRD       0.400700
      5 N1           8.0960    -2.0380    -3.1220 nb         1 GRD      -0.302000
      6 N3           7.3530    -0.2840    -1.6240 nb         1 GRD      -0.223000
      7 CAN         -8.9360    -3.9450     2.0520 ca         1 GRD      -0.115500
      8 CAL         -8.7300    -5.0570     1.2170 ca         1 GRD      -0.097000
      9 CAU          4.4940     1.8070     1.6720 c3         1 GRD       0.101000
     10 CBM         -8.0040    -2.4770     0.3380 ca         1 GRD      -0.102300
     11 CAQ         -8.5730    -2.6590     1.6150 ca         1 GRD      -0.083500
     12 CAS          0.8030     0.9870    -1.6840 c3         1 GRD      -0.093400
     13 CAT          4.9260     0.4910     0.9980 c3         1 GRD      -0.120400
     14 N7           7.2710    -3.3130     0.2930 nd         1 GRD      -0.547100
     15 N9           6.8040    -1.1330     0.6470 na         1 GRD      -0.282300
     16 C2           7.7920    -0.7520    -2.8170 ca         1 GRD       0.184900
     17 N6           8.2440    -4.2220    -2.4370 nv         1 GRD      -1.063900
     18 CBK          2.6400     2.6600     0.1950 c          1 GRD       0.569100
     19 N1C          3.0940     2.1300     1.3860 ns         1 GRD      -0.492900
     20 CAV          6.3950     0.1260     1.2890 c3         1 GRD       0.091600
     21 CBU          1.1010     2.8780     0.0970 c3         1 GRD       0.077300
     22 OAJ          0.7650     3.9630    -0.8120 oh         1 GRD      -0.653000
     23 CBS          0.3540     1.5760    -0.3170 c3         1 GRD       0.090700
     24 N1E         -1.0930     1.8220    -0.3080 ns         1 GRD      -0.490900
     25 CBJ         -2.0340     1.0560     0.3490 c          1 GRD       0.595100
     26 CBR         -3.5050     1.5550     0.2220 c3         1 GRD       0.051700
     27 CAY         -3.8610     2.6530     1.2690 c3         1 GRD      -0.095400
     28 CBP         -3.0660     3.9870     1.1800 c3         1 GRD      -0.057700
     29 CAB         -3.2530     4.7070    -0.1770 c3         1 GRD      -0.089600
     30 CAC         -3.4420     4.9260     2.3490 c3         1 GRD      -0.089600
     31 N1D         -4.4250     0.4090     0.3760 ns         1 GRD      -0.494900
     32 CBI         -5.7110     0.3640    -0.0780 c          1 GRD       0.639100
     33 OBF         -6.2520    -0.8380     0.2560 os         1 GRD      -0.456100
     34 CAW         -7.6120    -1.0840    -0.1360 c3         1 GRD       0.231900
     35 CAP         -7.7980    -3.5960    -0.4940 ca         1 GRD      -0.083500
     36 CAM         -8.1610    -4.8810    -0.0550 ca         1 GRD      -0.115500
     37 H8           6.5700    -2.6150     2.2300 h5         1 GRD       0.064800
     38 HAN         -9.3750    -4.0800     3.0380 ha         1 GRD       0.114500
     39 HAL         -9.0110    -6.0520     1.5560 ha         1 GRD       0.113000
     40 HAU          4.6190     1.7220     2.7600 h1         1 GRD       0.058200
     41 HAUA         5.1320     2.6310     1.3230 h1         1 GRD       0.058200
     42 HAQ         -8.7330    -1.8040     2.2680 ha         1 GRD       0.114500
     43 HAA          0.5170    -0.7300    -3.0000 hc         1 GRD       0.038700
     44 HAAA         0.2540    -1.0920    -1.2810 hc         1 GRD       0.038700
     45 HAAB        -0.9730    -0.1910    -2.2050 hc         1 GRD       0.038700
     46 HAS          1.8840     0.8030    -1.6650 hc         1 GRD       0.051700
     47 HASA         0.6220     1.7210    -2.4790 hc         1 GRD       0.051700
     48 HAT          4.2770    -0.3220     1.3440 hc         1 GRD       0.065200
     49 HATA         4.7860     0.5750    -0.0870 hc         1 GRD       0.065200
     50 H2           7.9160    -0.0200    -3.6130 h5         1 GRD       0.047100
     51 HN6          8.3450    -4.8610    -1.6510 hn         1 GRD       0.507500
     52 HN6A         8.8350    -4.3980    -3.2440 hn         1 GRD       0.507500
     53 HN1C         2.3990     1.9200     2.0950 hn         1 GRD       0.320500
     54 HAV          7.0510     0.9340     0.9370 h1         1 GRD       0.066200
     55 HAVA         6.5390     0.0310     2.3740 h1         1 GRD       0.066200
     56 HBU          0.7630     3.1410     1.1090 h1         1 GRD       0.078700
     57 HOAJ         1.5320     4.0590    -1.4240 ho         1 GRD       0.476000
     58 HBS          0.5820     0.8220     0.4500 h1         1 GRD       0.082700
     59 HN1E        -1.4230     2.6550    -0.7790 hn         1 GRD       0.330500
     60 HBR         -3.6310     1.9560    -0.7920 h1         1 GRD       0.087700
     61 HAY         -4.9290     2.8870     1.1840 hc         1 GRD       0.057700
     62 HAYA        -3.7220     2.2260     2.2700 hc         1 GRD       0.057700
     63 HBP         -1.9980     3.7640     1.2970 hc         1 GRD       0.045700
     64 HAB         -2.8850     4.1000    -1.0110 hc         1 GRD       0.035200
     65 HABA        -4.3120     4.9310    -0.3560 hc         1 GRD       0.035200
     66 HABB        -2.6980     5.6540    -0.1900 hc         1 GRD       0.035200
     67 HAC         -3.2580     4.4390     3.3140 hc         1 GRD       0.035200
     68 HACA        -2.8450     5.8450     2.3170 hc         1 GRD       0.035200
     69 HACB        -4.5020     5.2040     2.3020 hc         1 GRD       0.035200
     70 HN1D        -4.0930    -0.4220     0.8520 hn         1 GRD       0.344500
     71 HAW         -7.7190    -1.0240    -1.2280 h1         1 GRD       0.055700
     72 HAWA        -8.2860    -0.3410     0.3100 h1         1 GRD       0.055700
     73 HAP         -7.3550    -3.4690    -1.4800 ha         1 GRD       0.114500
     74 HAM         -8.0000    -5.7410    -0.7020 ha         1 GRD       0.114500
     75 CAA          0.1050    -0.3380    -2.0630 c3         1 GRD      -0.088100
     76 OAH         -1.7280     0.0430     0.9660 o          1 GRD      -0.615100
     77 OAG         -6.2740     1.2600    -0.6870 o          1 GRD      -0.549000
     78 OAI          3.4040     2.9850    -0.7060 o          1 GRD      -0.607100
@<TRIPOS>BOND
     1     1     2 ar  
     2     1     6 ar  
     3     1    15 1   
     4     2     3 ar  
     5     2    14 1   
     6     3     5 ar  
     7     3    17 1   
     8     4    14 2   
     9     4    15 1   
    10     4    37 1   
    11     5    16 ar  
    12     6    16 ar  
    13     7     8 ar  
    14     7    11 ar  
    15     7    38 1   
    16     8    36 ar  
    17     8    39 1   
    18     9    13 1   
    19     9    19 1   
    20     9    40 1   
    21     9    41 1   
    22    10    11 ar  
    23    10    34 1   
    24    10    35 ar  
    25    11    42 1   
    26    12    23 1   
    27    12    46 1   
    28    12    47 1   
    29    12    75 1   
    30    13    20 1   
    31    13    48 1   
    32    13    49 1   
    33    15    20 1   
    34    16    50 1   
    35    17    51 1   
    36    17    52 1   
    37    18    19 1   
    38    18    21 1   
    39    18    78 2   
    40    19    53 1   
    41    20    54 1   
    42    20    55 1   
    43    21    22 1   
    44    21    23 1   
    45    21    56 1   
    46    22    57 1   
    47    23    24 1   
    48    23    58 1   
    49    24    25 1   
    50    24    59 1   
    51    25    26 1   
    52    25    76 2   
    53    26    27 1   
    54    26    31 1   
    55    26    60 1   
    56    27    28 1   
    57    27    61 1   
    58    27    62 1   
    59    28    29 1   
    60    28    30 1   
    61    28    63 1   
    62    29    64 1   
    63    29    65 1   
    64    29    66 1   
    65    30    67 1   
    66    30    68 1   
    67    30    69 1   
    68    31    32 1   
    69    31    70 1   
    70    32    33 1   
    71    32    77 2   
    72    33    34 1   
    73    34    71 1   
    74    34    72 1   
    75    35    36 ar  
    76    35    73 1   
    77    36    74 1   
    78    43    75 1   
    79    44    75 1   
    80    45    75 1   
@<TRIPOS>SUBSTRUCTURE
     1 GRD         1 TEMP              0 ****  ****    0 ROOT
