@<TRIPOS>MOLECULE
GRD
   78    80     1     0     0
SMALL
abcg2


@<TRIPOS>ATOM
      1 C4           6.5860    -1.7220    -0.4040 ca         1 GRD       0.123500
      2 C5           7.0830    -2.7620     0.3680 ca         1 GRD      -0.101600
      3 C6           7.0020    -4.0490    -0.1950 ca         1 GRD       0.452900
      4 C8           7.3700    -1.0080     1.5010 cc         1 GRD       0.400700
      5 N1           6.4550    -4.1680    -1.4100 nb         1 GRD      -0.302000
      6 N3           6.0420    -1.8250    -1.6160 nb         1 GRD      -0.223000
      7 CAN         -8.4230    -4.2690     1.0040 ca         1 GRD      -0.115500
      8 CAL         -8.0680    -5.1930     0.0300 ca         1 GRD      -0.097000
      9 CAU          4.5130     2.4040    -0.1850 c3         1 GRD       0.101000
     10 CBM         -7.4710    -2.4910    -0.3230 ca         1 GRD      -0.102300
     11 CAQ         -8.1240    -2.9250     0.8270 ca         1 GRD      -0.083500
     12 CAS          0.3680     1.7240    -2.2860 c3         1 GRD      -0.093400
     13 CAT          4.8950     0.9730     0.1640 c3         1 GRD      -0.120400
     14 N7           7.5710    -2.2930     1.5600 nd         1 GRD      -0.547100
     15 N9           6.7840    -0.5980     0.3390 na         1 GRD      -0.282300
     16 C2           6.0180    -3.0770    -2.0350 ca         1 GRD       0.184900
     17 N6           7.4360    -5.1420     0.4360 nv         1 GRD      -1.063900
     18 CBK          2.3370     3.4030    -0.7530 c          1 GRD       0.569100
     19 N1C          3.0930     2.6070     0.0070 ns         1 GRD      -0.492900
     20 CAV          6.3900     0.7510    -0.0130 c3         1 GRD       0.091600
     21 CBU          0.8470     3.4130    -0.4150 c3         1 GRD       0.077300
     22 OAJ          0.2200     4.4880    -1.0480 oh         1 GRD      -0.653000
     23 CBS          0.1960     2.0710    -0.8080 c3         1 GRD       0.090700
     24 N1E         -1.2050     2.1320    -0.4500 ns         1 GRD      -0.490900
     25 CBJ         -1.8180     1.2900     0.3920 c          1 GRD       0.595100
     26 CBR         -3.2870     1.5970     0.6610 c3         1 GRD       0.051700
     27 CAY         -3.4630     2.1230     2.0890 c3         1 GRD      -0.095400
     28 CBP         -2.7080     3.4110     2.4230 c3         1 GRD      -0.057700
     29 CAB         -3.1520     4.5830     1.5520 c3         1 GRD      -0.089600
     30 CAC         -2.9050     3.7460     3.8990 c3         1 GRD      -0.089600
     31 N1D         -4.0300     0.3740     0.4570 ns         1 GRD      -0.494900
     32 CBI         -5.2900     0.3650    -0.0150 c          1 GRD       0.639100
     33 OBF         -5.7940    -0.8730     0.0100 os         1 GRD      -0.456100
     34 CAW         -7.1220    -1.0450    -0.4990 c3         1 GRD       0.231900
     35 CAP         -7.1190    -3.4250    -1.2940 ca         1 GRD      -0.083500
     36 CAM         -7.4150    -4.7690    -1.1200 ca         1 GRD      -0.115500
     37 H8           7.6320    -0.2990     2.2720 h5         1 GRD       0.064800
     38 HAN         -8.9340    -4.5940     1.9010 ha         1 GRD       0.114500
     39 HAL         -8.3030    -6.2410     0.1660 ha         1 GRD       0.113000
     40 HAU          5.0830     3.1080     0.4280 h1         1 GRD       0.058200
     41 HAUA         4.7550     2.6150    -1.2270 h1         1 GRD       0.058200
     42 HAQ         -8.4050    -2.2060     1.5880 ha         1 GRD       0.114500
     43 HAA         -0.1050     0.1810    -3.7210 hc         1 GRD       0.038700
     44 HAAA         0.1440    -0.4270    -2.0870 hc         1 GRD       0.038700
     45 HAAB        -1.3520     0.4070    -2.5030 hc         1 GRD       0.038700
     46 HAS          1.4350     1.6750    -2.5160 hc         1 GRD       0.051700
     47 HASA        -0.0460     2.5260    -2.9040 hc         1 GRD       0.051700
     48 HAT          4.6200     0.7560     1.2000 hc         1 GRD       0.065200
     49 HATA         4.3400     0.2830    -0.4750 hc         1 GRD       0.065200
     50 H2           5.5880    -3.2450    -3.0170 h5         1 GRD       0.047100
     51 HN6          7.9020    -5.0780     1.3240 hn         1 GRD       0.507500
     52 HN6A         7.3990    -6.0370    -0.0200 hn         1 GRD       0.507500
     53 HN1C         2.6770     2.1960     0.8290 hn         1 GRD       0.320500
     54 HAV          6.6910     0.9360    -1.0450 h1         1 GRD       0.066200
     55 HAVA         6.9600     1.4340     0.6170 h1         1 GRD       0.066200
     56 HBU          0.7260     3.5330     0.6690 h1         1 GRD       0.078700
     57 HOAJ         0.7750     4.7440    -1.7990 ho         1 GRD       0.476000
     58 HBS          0.6430     1.2800    -0.2030 h1         1 GRD       0.082700
     59 HN1E        -1.7540     2.8530    -0.8930 hn         1 GRD       0.330500
     60 HBR         -3.6580     2.3330    -0.0540 h1         1 GRD       0.087700
     61 HAY         -4.5330     2.2850     2.2530 hc         1 GRD       0.057700
     62 HAYA        -3.1590     1.3330     2.7820 hc         1 GRD       0.057700
     63 HBP         -1.6360     3.2480     2.2610 hc         1 GRD       0.045700
     64 HAB         -2.9190     4.4400     0.4970 hc         1 GRD       0.035200
     65 HABA        -4.2300     4.7390     1.6330 hc         1 GRD       0.035200
     66 HABB        -2.6590     5.5060     1.8630 hc         1 GRD       0.035200
     67 HAC         -2.5820     2.9260     4.5420 hc         1 GRD       0.035200
     68 HACA        -2.3360     4.6330     4.1810 hc         1 GRD       0.035200
     69 HACB        -3.9570     3.9440     4.1150 hc         1 GRD       0.035200
     70 HN1D        -3.6530    -0.4700     0.8590 hn         1 GRD       0.344500
     71 HAW         -7.1590    -0.7610    -1.5530 h1         1 GRD       0.055700
     72 HAWA        -7.8210    -0.4090     0.0490 h1         1 GRD       0.055700
     73 HAP         -6.6140    -3.0970    -2.1950 ha         1 GRD       0.114500
     74 HAM         -7.1400    -5.4860    -1.8830 ha         1 GRD       0.114500
     75 CAA         -0.2740     0.3980    -2.6660 c3         1 GRD      -0.088100
     76 OAH         -1.2700     0.3480     0.9460 o          1 GRD      -0.615100
     77 OAG         -5.8950     1.3360    -0.4230 o          1 GRD      -0.549000
     78 OAI          2.7530     4.0650    -1.6950 o          1 GRD      -0.607100
@<TRIPOS>BOND
     1     1     2 ar  
     2     1     6 ar  
     3     1    15 1   
     4     2     3 ar  
     5     2    14 1   
     6     3     5 ar  
     7     3    17 1   
     8     4    14 2   
     9     4    15 1   
    10     4    37 1   
    11     5    16 ar  
    12     6    16 ar  
    13     7     8 ar  
    14     7    11 ar  
    15     7    38 1   
    16     8    36 ar  
    17     8    39 1   
    18     9    13 1   
    19     9    19 1   
    20     9    40 1   
    21     9    41 1   
    22    10    11 ar  
    23    10    34 1   
    24    10    35 ar  
    25    11    42 1   
    26    12    23 1   
    27    12    46 1   
    28    12    47 1   
    29    12    75 1   
    30    13    20 1   
    31    13    48 1   
    32    13    49 1   
    33    15    20 1   
    34    16    50 1   
    35    17    51 1   
    36    17    52 1   
    37    18    19 1   
    38    18    21 1   
    39    18    78 2   
    40    19    53 1   
    41    20    54 1   
    42    20    55 1   
    43    21    22 1   
    44    21    23 1   
    45    21    56 1   
    46    22    57 1   
    47    23    24 1   
    48    23    58 1   
    49    24    25 1   
    50    24    59 1   
    51    25    26 1   
    52    25    76 2   
    53    26    27 1   
    54    26    31 1   
    55    26    60 1   
    56    27    28 1   
    57    27    61 1   
    58    27    62 1   
    59    28    29 1   
    60    28    30 1   
    61    28    63 1   
    62    29    64 1   
    63    29    65 1   
    64    29    66 1   
    65    30    67 1   
    66    30    68 1   
    67    30    69 1   
    68    31    32 1   
    69    31    70 1   
    70    32    33 1   
    71    32    77 2   
    72    33    34 1   
    73    34    71 1   
    74    34    72 1   
    75    35    36 ar  
    76    35    73 1   
    77    36    74 1   
    78    43    75 1   
    79    44    75 1   
    80    45    75 1   
@<TRIPOS>SUBSTRUCTURE
     1 GRD         1 TEMP              0 ****  ****    0 ROOT
