@<TRIPOS>MOLECULE
GRE
   16    16     1     0     0
SMALL
abcg2


@<TRIPOS>ATOM
      1 C1A          3.9840    -2.3330     2.7740 c          1 GRE       0.729600
      2 O1A          4.9250    -2.7770     2.0290 o          1 GRE      -0.681000
      3 O2A          3.9790    -2.4360     3.9990 o          1 GRE      -0.681000
      4 C1           2.8540    -1.6550     2.0400 ca         1 GRE      -0.313600
      5 C2           2.9230    -1.5540     0.6260 ca         1 GRE       0.230600
      6 C3           1.9030    -0.9290    -0.1000 ca         1 GRE      -0.289500
      7 C4           0.8160    -0.4060     0.5710 ca         1 GRE      -0.037000
      8 C5           0.7170    -0.4900     1.9510 ca         1 GRE      -0.289500
      9 C6           1.7290    -1.1100     2.6830 ca         1 GRE       0.230600
     10 O2           3.9590    -2.0530    -0.0310 oh         1 GRE      -0.573600
     11 O6           1.6250    -1.1880     4.0220 oh         1 GRE      -0.573600
     12 H3           1.9800    -0.8640    -1.1780 ha         1 GRE       0.093500
     13 H4           0.0240     0.0790     0.0130 ha         1 GRE       0.078000
     14 H5          -0.1440    -0.0730     2.4620 ha         1 GRE       0.093500
     15 HO2          4.5540    -2.4510     0.7370 ho         1 GRE       0.491000
     16 HO6          0.8010    -0.7700     4.2970 ho         1 GRE       0.491000
@<TRIPOS>BOND
     1     1     2 1   
     2     1     3 1   
     3     1     4 1   
     4     4     5 ar  
     5     4     9 ar  
     6     5     6 ar  
     7     5    10 1   
     8     6     7 ar  
     9     6    12 1   
    10     7     8 ar  
    11     7    13 1   
    12     8     9 ar  
    13     8    14 1   
    14     9    11 1   
    15    10    15 1   
    16    11    16 1   
@<TRIPOS>SUBSTRUCTURE
     1 GRE         1 TEMP              0 ****  ****    0 ROOT
