@<TRIPOS>MOLECULE
GRE
   16    16     1     0     0
SMALL
No Charge or Current Charge


@<TRIPOS>ATOM
      1 C1A          3.9900    -2.3070     2.7950 c          1 GRE       0.729600
      2 O1A          4.5420    -3.2560     2.2540 o          1 GRE      -0.681000
      3 O2A          4.4230    -1.7640     3.7990 o          1 GRE      -0.681000
      4 C1           2.8740    -1.6490     2.0390 ca         1 GRE      -0.313600
      5 C2           2.9640    -1.5020     0.6420 ca         1 GRE       0.230600
      6 C3           1.9530    -0.8570    -0.0810 ca         1 GRE      -0.289500
      7 C4           0.8220    -0.3610     0.5780 ca         1 GRE      -0.037000
      8 C5           0.7070    -0.5270     1.9650 ca         1 GRE      -0.289500
      9 C6           1.7220    -1.1680     2.6920 ca         1 GRE       0.230600
     10 O2           4.0320    -2.0000    -0.0310 oh         1 GRE      -0.573600
     11 O6           1.5400    -1.3380     4.0280 oh         1 GRE      -0.573600
     12 H3           2.0420    -0.7470    -1.1580 ha         1 GRE       0.093500
     13 H4           0.0330     0.1370     0.0170 ha         1 GRE       0.078000
     14 H5          -0.1820    -0.1560     2.4700 ha         1 GRE       0.093500
     15 HO2          4.4860    -2.5920     0.6230 ho         1 GRE       0.491000
     16 HO6          0.6810    -0.9260     4.2630 ho         1 GRE       0.491000
@<TRIPOS>BOND
     1     1     2 1   
     2     1     3 1   
     3     1     4 1   
     4     4     5 ar  
     5     4     9 ar  
     6     5     6 ar  
     7     5    10 1   
     8     6     7 ar  
     9     6    12 1   
    10     7     8 ar  
    11     7    13 1   
    12     8     9 ar  
    13     8    14 1   
    14     9    11 1   
    15    10    15 1   
    16    11    16 1   
@<TRIPOS>SUBSTRUCTURE
     1 GRE         1 TEMP              0 ****  ****    0 ROOT
