@<TRIPOS>MOLECULE
GRH
   48    50     1     0     0
SMALL
abcg2


@<TRIPOS>ATOM
      1 C1          -1.6400     0.5690    -1.1980 ca         1 GRH       0.171100
      2 C2          -0.8300     0.9420    -0.1330 ca         1 GRH      -0.247500
      3 C3           0.4190     0.3700     0.0650 ca         1 GRH      -0.036000
      4 C11          4.2520    -3.1000     1.2150 c3         1 GRH      -0.083100
      5 C12          5.5000    -1.2350     0.0060 ca         1 GRH      -0.085300
      6 C13          6.1360    -0.7410     1.1420 ca         1 GRH      -0.091500
      7 C14          7.2860     0.0290     1.0290 ca         1 GRH      -0.110500
      8 C15          7.8160     0.3210    -0.2210 ca         1 GRH      -0.102000
      9 C16          7.1870    -0.1640    -1.3600 ca         1 GRH      -0.110500
     10 C17          6.0380    -0.9340    -1.2430 ca         1 GRH      -0.091500
     11 C23         -3.9920     0.5110    -1.1730 ca         1 GRH       0.149100
     12 C24         -4.0420    -0.6570    -0.4250 ca         1 GRH      -0.155000
     13 C25         -5.2740    -1.2650    -0.2360 ca         1 GRH       0.153000
     14 C26         -6.4430    -0.7410    -0.7610 ca         1 GRH      -0.130000
     15 C27         -6.3620     0.4330    -1.4980 ca         1 GRH      -0.076000
     16 C28         -5.1480     1.0620    -1.7140 ca         1 GRH      -0.130000
     17 CL1         -5.3420    -2.7240     0.6970 cl         1 GRH      -0.203000
     18 O22         -2.8340     1.1910    -1.4020 os         1 GRH      -0.250200
     19 S18         -1.4040     2.1490     1.0380 sy         1 GRH       1.144600
     20 O20         -2.7610     1.8180     1.4380 o          1 GRH      -0.539000
     21 O21         -0.3810     2.2550     2.0690 o          1 GRH      -0.539000
     22 N19         -1.4900     3.5090     0.1180 n8         1 GRH      -1.013100
     23 C6          -1.1870    -0.4030    -2.0750 ca         1 GRH      -0.118000
     24 C5           0.0500    -0.9860    -1.8840 ca         1 GRH      -0.111000
     25 C4           0.8680    -0.6120    -0.8150 ca         1 GRH      -0.037000
     26 N7           2.1000    -1.2560    -0.7050 ns         1 GRH      -0.147000
     27 C8           3.0400    -1.1440     0.2690 c          1 GRH       0.607100
     28 O9           2.9490    -0.3920     1.2200 o          1 GRH      -0.558100
     29 C10          4.2400    -2.0660     0.0880 c3         1 GRH      -0.087400
     30 H1           1.0270     0.6890     0.8940 ha         1 GRH       0.180000
     31 H2           3.3590    -3.7250     1.1690 hc         1 GRH       0.048033
     32 H3           5.1220    -3.7480     1.1170 hc         1 GRH       0.048033
     33 H4           4.2820    -2.6350     2.1980 hc         1 GRH       0.048033
     34 H5           5.7450    -0.9570     2.1280 ha         1 GRH       0.114000
     35 H6           7.7710     0.4000     1.9230 ha         1 GRH       0.114500
     36 H7           8.7140     0.9190    -0.3060 ha         1 GRH       0.114000
     37 H8           7.5930     0.0520    -2.3400 ha         1 GRH       0.114500
     38 H9           5.5560    -1.3130    -2.1370 ha         1 GRH       0.114000
     39 H10         -3.1520    -1.0900     0.0120 ha         1 GRH       0.141000
     40 H11         -7.3930    -1.2310    -0.6000 ha         1 GRH       0.131000
     41 H12         -7.2640     0.8600    -1.9170 ha         1 GRH       0.119000
     42 H13         -5.0910     1.9740    -2.2950 ha         1 GRH       0.131000
     43 H14         -0.6120     4.0140     0.0660 hn         1 GRH       0.480500
     44 H15         -2.2510     4.1180     0.4010 hn         1 GRH       0.480500
     45 H16         -1.8000    -0.7050    -2.9140 ha         1 GRH       0.133000
     46 H17          0.3870    -1.7430    -2.5810 ha         1 GRH       0.116000
     47 H18          2.2950    -1.9230    -1.4360 hn         1 GRH       0.151000
     48 H19          4.1430    -2.6080    -0.8570 hc         1 GRH       0.051700
@<TRIPOS>BOND
     1     1     2 ar  
     2     1    18 1   
     3     1    23 ar  
     4     2     3 ar  
     5     2    19 1   
     6     3    25 ar  
     7     3    30 1   
     8     4    29 1   
     9     4    31 1   
    10     4    32 1   
    11     4    33 1   
    12     5     6 ar  
    13     5    10 ar  
    14     5    29 1   
    15     6     7 ar  
    16     6    34 1   
    17     7     8 ar  
    18     7    35 1   
    19     8     9 ar  
    20     8    36 1   
    21     9    10 ar  
    22     9    37 1   
    23    10    38 1   
    24    11    12 ar  
    25    11    16 ar  
    26    11    18 1   
    27    12    13 ar  
    28    12    39 1   
    29    13    14 ar  
    30    13    17 1   
    31    14    15 ar  
    32    14    40 1   
    33    15    16 ar  
    34    15    41 1   
    35    16    42 1   
    36    19    20 2   
    37    19    21 2   
    38    19    22 1   
    39    22    43 1   
    40    22    44 1   
    41    23    24 ar  
    42    23    45 1   
    43    24    25 ar  
    44    24    46 1   
    45    25    26 1   
    46    26    27 1   
    47    26    47 1   
    48    27    28 2   
    49    27    29 1   
    50    29    48 1   
@<TRIPOS>SUBSTRUCTURE
     1 GRH         1 TEMP              0 ****  ****    0 ROOT
