@<TRIPOS>MOLECULE
GRH
   48    50     1     0     0
SMALL
No Charge or Current Charge


@<TRIPOS>ATOM
      1 C1          -1.7010     0.6600    -0.6800 ca         1 GRH       0.171100
      2 C2          -0.8280     1.0740     0.3450 ca         1 GRH      -0.247500
      3 C3           0.4360     0.4510     0.4800 ca         1 GRH      -0.036000
      4 C11          4.5780    -3.1390     1.3580 c3         1 GRH      -0.083100
      5 C12          5.5810    -1.2860    -0.1120 ca         1 GRH      -0.085300
      6 C13          6.3260    -0.6290     0.8920 ca         1 GRH      -0.091500
      7 C14          7.4680     0.1190     0.5570 ca         1 GRH      -0.110500
      8 C15          7.8760     0.2200    -0.7830 ca         1 GRH      -0.102000
      9 C16          7.1390    -0.4250    -1.7890 ca         1 GRH      -0.110500
     10 C17          5.9960    -1.1730    -1.4550 ca         1 GRH      -0.091500
     11 C23         -4.0820     0.5900    -1.0840 ca         1 GRH       0.149100
     12 C24         -4.3110    -0.6670    -0.4920 ca         1 GRH      -0.155000
     13 C25         -5.5160    -1.3440    -0.7360 ca         1 GRH       0.153000
     14 C26         -6.4960    -0.7690    -1.5620 ca         1 GRH      -0.130000
     15 C27         -6.2740     0.4910    -2.1440 ca         1 GRH      -0.076000
     16 C28         -5.0670     1.1710    -1.9000 ca         1 GRH      -0.130000
     17 Cl1         -5.7990    -2.9160    -0.0010 cl         1 GRH      -0.203000
     18 O22         -2.9150     1.2850    -0.8550 os         1 GRH      -0.250200
     19 S18         -1.3080     2.3730     1.4910 sy         1 GRH       1.144600
     20 O20         -2.6730     2.1510     1.9610 o          1 GRH      -0.539000
     21 O21         -0.2050     2.6810     2.4020 o          1 GRH      -0.539000
     22 N19         -1.4500     3.6830     0.5200 n8         1 GRH      -1.013100
     23 C6          -1.3060    -0.3560    -1.5680 ca         1 GRH      -0.118000
     24 C5          -0.0540    -0.9750    -1.4260 ca         1 GRH      -0.111000
     25 C4           0.8270    -0.5830    -0.4030 ca         1 GRH      -0.037000
     26 N7           2.0800    -1.2560    -0.3280 ns         1 GRH      -0.147000
     27 C8           3.1380    -1.1730     0.5700 c          1 GRH       0.607100
     28 O9           3.1490    -0.4310     1.5460 o          1 GRH      -0.558100
     29 C10          4.3290    -2.1020     0.2340 c3         1 GRH      -0.087400
     30 H1           1.1010     0.7810     1.2730 ha         1 GRH       0.180000
     31 H2           3.6940    -3.7720     1.4990 hc         1 GRH       0.048033
     32 H3           5.4230    -3.7890     1.1010 hc         1 GRH       0.048033
     33 H4           4.7990    -2.6510     2.3150 hc         1 GRH       0.048033
     34 H5           6.0200    -0.6890     1.9330 ha         1 GRH       0.114000
     35 H6           8.0350     0.6210     1.3370 ha         1 GRH       0.114500
     36 H7           8.7600     0.8000    -1.0420 ha         1 GRH       0.114000
     37 H8           7.4520    -0.3460    -2.8270 ha         1 GRH       0.114500
     38 H9           5.4360    -1.6670    -2.2460 ha         1 GRH       0.114000
     39 H10         -3.5660    -1.1160     0.1580 ha         1 GRH       0.141000
     40 H11         -7.4270    -1.2990    -1.7470 ha         1 GRH       0.131000
     41 H12         -7.0340     0.9400    -2.7800 ha         1 GRH       0.119000
     42 H13         -4.8920     2.1460    -2.3470 ha         1 GRH       0.131000
     43 H14         -2.2380     4.1570     0.9540 hn         1 GRH       0.480500
     44 H15         -1.8570     3.2730    -0.3170 hn         1 GRH       0.480500
     45 H16         -1.9680    -0.6620    -2.3740 ha         1 GRH       0.133000
     46 H17          0.2320    -1.7620    -2.1210 ha         1 GRH       0.116000
     47 H18          2.2270    -1.9220    -1.0760 hn         1 GRH       0.151000
     48 H19          4.0490    -2.6830    -0.6540 hc         1 GRH       0.051700
@<TRIPOS>BOND
     1     1     2 ar  
     2     1    18 1   
     3     1    23 ar  
     4     2     3 ar  
     5     2    19 1   
     6     3    25 ar  
     7     3    30 1   
     8     4    29 1   
     9     4    31 1   
    10     4    32 1   
    11     4    33 1   
    12     5     6 ar  
    13     5    10 ar  
    14     5    29 1   
    15     6     7 ar  
    16     6    34 1   
    17     7     8 ar  
    18     7    35 1   
    19     8     9 ar  
    20     8    36 1   
    21     9    10 ar  
    22     9    37 1   
    23    10    38 1   
    24    11    12 ar  
    25    11    16 ar  
    26    11    18 1   
    27    12    13 ar  
    28    12    39 1   
    29    13    14 ar  
    30    13    17 1   
    31    14    15 ar  
    32    14    40 1   
    33    15    16 ar  
    34    15    41 1   
    35    16    42 1   
    36    19    20 2   
    37    19    21 2   
    38    19    22 1   
    39    22    43 1   
    40    22    44 1   
    41    23    24 ar  
    42    23    45 1   
    43    24    25 ar  
    44    24    46 1   
    45    25    26 1   
    46    26    27 1   
    47    26    47 1   
    48    27    28 2   
    49    27    29 1   
    50    29    48 1   
@<TRIPOS>SUBSTRUCTURE
     1 GRH         1 TEMP              0 ****  ****    0 ROOT
