@<TRIPOS>MOLECULE
GRI
   30    32     1     0     0
SMALL
No Charge or Current Charge


@<TRIPOS>ATOM
      1 CAA          1.8780    -4.1430     0.0070 c3         1 GRI       0.142900
      2 OAB         -3.6910    -1.5540    -1.1290 o          1 GRI      -0.699000
      3 OAC          4.6280     2.4590     0.0370 o          1 GRI      -0.574100
      4 OAD         -3.7050    -1.5590     1.0300 o          1 GRI      -0.699000
      5 CAE         -2.9720     2.7180    -0.0410 ca         1 GRI      -0.063000
      6 CAF         -3.5570     1.4450    -0.0480 ca         1 GRI      -0.147000
      7 CAG          3.6150    -0.2200     0.0260 ca         1 GRI       0.022000
      8 CAH          3.0590    -1.5030     0.0200 ca         1 GRI      -0.296000
      9 CAI         -1.5760     2.8410    -0.0270 ca         1 GRI      -0.156000
     10 NAK          0.5960     1.8740    -0.0040 nb         1 GRI      -0.688000
     11 NAL         -0.5550    -0.7080    -0.0170 nb         1 GRI      -0.526000
     12 OAM          1.0920    -2.9400    -0.0010 os         1 GRI      -0.273100
     13 CAO          2.7860     0.9150     0.0180 ca         1 GRI      -0.243600
     14 CAP          1.6590    -1.6730     0.0050 ca         1 GRI       0.239100
     15 CAQ         -2.7480     0.2890    -0.0390 ca         1 GRI      -0.051600
     16 CAR         -0.7500     1.7030    -0.0180 ca         1 GRI       0.270000
     17 CAS          1.3820     0.7670     0.0030 ca         1 GRI       0.299000
     18 CAT         -1.3400     0.4000    -0.0250 ca         1 GRI       0.240000
     19 CAU          0.8000    -0.5430    -0.0030 ca         1 GRI       0.175000
     20 HAA          1.2240    -5.0230    -0.0000 h1         1 GRI       0.042033
     21 HAAA         2.5240    -4.1920    -0.8790 h1         1 GRI       0.042033
     22 HAAB         2.5050    -4.1930     0.9060 h1         1 GRI       0.042033
     23 HAE         -3.5990     3.6070    -0.0470 ha         1 GRI       0.095000
     24 HAF         -4.6400     1.3480    -0.0590 ha         1 GRI       0.123000
     25 HAG          4.6990    -0.1140     0.0370 ha         1 GRI       0.118000
     26 HAH          3.7330    -2.3540     0.0270 ha         1 GRI       0.113000
     27 HAI         -1.1270     3.8310    -0.0220 ha         1 GRI       0.112000
     28 HAJ          2.7300     3.1630     0.0180 h4         1 GRI       0.013200
     29 CAN         -3.3940    -1.0650    -0.0460 c          1 GRI       0.726600
     30 CAJ          3.4120     2.2850     0.0250 c          1 GRI       0.601500
@<TRIPOS>BOND
     1     1    12 1   
     2     1    20 1   
     3     1    21 1   
     4     1    22 1   
     5     2    29 1   
     6     3    30 2   
     7     4    29 1   
     8     5     6 ar  
     9     5     9 ar  
    10     5    23 1   
    11     6    15 ar  
    12     6    24 1   
    13     7     8 ar  
    14     7    13 ar  
    15     7    25 1   
    16     8    14 ar  
    17     8    26 1   
    18     9    16 ar  
    19     9    27 1   
    20    10    16 ar  
    21    10    17 ar  
    22    11    18 ar  
    23    11    19 ar  
    24    12    14 1   
    25    13    17 ar  
    26    13    30 1   
    27    14    19 ar  
    28    15    18 ar  
    29    15    29 1   
    30    16    18 ar  
    31    17    19 ar  
    32    28    30 1   
@<TRIPOS>SUBSTRUCTURE
     1 GRI         1 TEMP              0 ****  ****    0 ROOT
