@<TRIPOS>MOLECULE
GRI
   30    32     1     0     0
SMALL
abcg2


@<TRIPOS>ATOM
      1 CAA          1.7880    -4.0260     0.0400 c3         1 GRI       0.142900
      2 OAB         -3.1510    -1.7520    -1.1860 o          1 GRI      -0.699000
      3 OAC          4.6340     2.4280    -0.0220 o          1 GRI      -0.574100
      4 OAD         -4.0250    -1.4960     0.8570 o          1 GRI      -0.699000
      5 CAE         -2.9130     2.6630     0.0330 ca         1 GRI      -0.063000
      6 CAF         -3.4860     1.3630     0.0270 ca         1 GRI      -0.147000
      7 CAG          3.5650    -0.2120     0.0000 ca         1 GRI       0.022000
      8 CAH          3.0110    -1.5040     0.0130 ca         1 GRI      -0.296000
      9 CAI         -1.5640     2.8400     0.0080 ca         1 GRI      -0.156000
     10 NAK          0.6050     1.8710    -0.0110 nb         1 GRI      -0.688000
     11 NAL         -0.5170    -0.6840    -0.0240 nb         1 GRI      -0.526000
     12 OAM          1.0170    -2.8330     0.0200 os         1 GRI      -0.273100
     13 CAO          2.8030     0.9280    -0.0120 ca         1 GRI      -0.243600
     14 CAP          1.6470    -1.6710     0.0080 ca         1 GRI       0.239100
     15 CAQ         -2.7150     0.2380    -0.0340 ca         1 GRI      -0.051600
     16 CAR         -0.7150     1.7030    -0.0170 ca         1 GRI       0.270000
     17 CAS          1.3780     0.7950    -0.0140 ca         1 GRI       0.299000
     18 CAT         -1.2950     0.3930    -0.0390 ca         1 GRI       0.240000
     19 CAU          0.7920    -0.5100    -0.0110 ca         1 GRI       0.175000
     20 HAA          1.0770    -4.8470     0.0460 h1         1 GRI       0.042033
     21 HAAA         2.4220    -4.1060    -0.8440 h1         1 GRI       0.042033
     22 HAAB         2.4090    -4.0830     0.9360 h1         1 GRI       0.042033
     23 HAE         -3.5710     3.5220     0.0600 ha         1 GRI       0.095000
     24 HAF         -4.5650     1.2750     0.0550 ha         1 GRI       0.123000
     25 HAG          4.6450    -0.1240     0.0020 ha         1 GRI       0.118000
     26 HAH          3.6840    -2.3490     0.0250 ha         1 GRI       0.113000
     27 HAI         -1.1170     3.8260     0.0150 ha         1 GRI       0.112000
     28 HAJ          2.7390     3.1020    -0.0300 h4         1 GRI       0.013200
     29 CAN         -3.3490    -1.1410    -0.1240 c          1 GRI       0.726600
     30 CAJ          3.4330     2.2490    -0.0220 c          1 GRI       0.601500
@<TRIPOS>BOND
     1     1    12 1   
     2     1    20 1   
     3     1    21 1   
     4     1    22 1   
     5     2    29 1   
     6     3    30 2   
     7     4    29 1   
     8     5     6 ar  
     9     5     9 ar  
    10     5    23 1   
    11     6    15 ar  
    12     6    24 1   
    13     7     8 ar  
    14     7    13 ar  
    15     7    25 1   
    16     8    14 ar  
    17     8    26 1   
    18     9    16 ar  
    19     9    27 1   
    20    10    16 ar  
    21    10    17 ar  
    22    11    18 ar  
    23    11    19 ar  
    24    12    14 1   
    25    13    17 ar  
    26    13    30 1   
    27    14    19 ar  
    28    15    18 ar  
    29    15    29 1   
    30    16    18 ar  
    31    17    19 ar  
    32    28    30 1   
@<TRIPOS>SUBSTRUCTURE
     1 GRI         1 TEMP              0 ****  ****    0 ROOT
