@<TRIPOS>MOLECULE
GRJ
   61    64     1     0     0
SMALL
abcg2


@<TRIPOS>ATOM
      1 N1          15.5290    10.9310   -11.2130 nc         1 GRJ      -0.480100
      2 N3          12.3250    12.7400   -11.4970 nb         1 GRJ      -0.394000
      3 C4          17.8120    12.6860   -16.9330 c5         1 GRJ       0.152300
      4 C5          18.6850    13.0620   -15.7240 c5         1 GRJ       0.437300
      5 C6          19.7960    13.9630   -10.7070 c3         1 GRJ       0.229600
      6 C7          18.8260    14.6930    -9.8010 c5         1 GRJ       0.160300
      7 C8          18.8750    14.2790    -8.3310 c5         1 GRJ       0.152300
      8 C10         16.7690    13.7240    -9.2690 c5         1 GRJ       0.300300
      9 C13         14.7080    12.8770   -10.3660 ca         1 GRJ       0.134500
     10 C15         13.1670    11.7570   -11.7310 ca         1 GRJ       0.431300
     11 N           15.9940    12.7080    -9.9350 na         1 GRJ      -0.302300
     12 C           15.5340    14.7740   -13.3390 c3         1 GRJ      -0.120100
     13 O           17.7900    13.5910   -14.7770 os         1 GRJ      -0.443000
     14 C1          15.4730    14.2910   -14.7800 c3         1 GRJ       0.182300
     15 C11         16.4280    11.5240   -10.4930 cd         1 GRJ       0.458700
     16 C12         14.4370    11.7650   -11.1520 ca         1 GRJ      -0.058600
     17 C14         12.7070    13.7540   -10.6960 ca         1 GRJ       0.393900
     18 C2          16.8230    14.3610   -15.4720 c5         1 GRJ       0.159300
     19 C3          16.8300    13.8680   -16.9420 c5         1 GRJ       0.083300
     20 C9          17.7950    13.1990    -8.2550 c5         1 GRJ       0.090300
     21 N2          13.8930    13.8880   -10.1070 nb         1 GRJ      -0.266000
     22 N4          11.7780    14.7040   -10.4570 nv         1 GRJ      -1.075900
     23 O1          19.4630    12.0530   -15.1800 os         1 GRJ      -0.574400
     24 O10         17.2830    13.0910    -6.9590 oh         1 GRJ      -0.738000
     25 O11         18.5290    15.4000    -7.5560 oh         1 GRJ      -0.736000
     26 O12         17.1870    11.4430   -16.8570 oh         1 GRJ      -0.787000
     27 O13         17.3310    14.8470   -17.8280 oh         1 GRJ      -0.727000
     28 O14         14.9760    12.9740   -14.8700 oh         1 GRJ      -0.660000
     29 O2          20.0040     9.8040   -14.2380 o          1 GRJ      -0.820500
     30 O3          17.5060    10.5560   -14.4080 o          1 GRJ      -0.820500
     31 O4          19.0220    11.6220   -12.7090 os         1 GRJ      -0.714800
     32 O5          20.1280    10.1680   -10.9000 o          1 GRJ      -0.839000
     33 O6          21.5140    11.9920   -12.1860 o          1 GRJ      -0.839000
     34 O7          19.6520    12.5770   -10.5140 os         1 GRJ      -0.619400
     35 O8          17.4830    14.4620   -10.2230 os         1 GRJ      -0.440000
     36 O9          12.8080    10.7670   -12.5300 oh         1 GRJ      -0.596300
     37 P           18.9590    10.8630   -14.1510 p5         1 GRJ       1.480800
     38 P1          20.2410    11.4850   -11.5920 p5         1 GRJ       1.467800
     39 H1          18.4150    12.7110   -17.8470 h1         1 GRJ       0.051700
     40 H2          19.3910    13.8430   -16.0460 h2         1 GRJ       0.023700
     41 H3          20.8120    14.2930   -10.4680 h1         1 GRJ       0.034200
     42 H4          19.5950    14.2590   -11.7430 h1         1 GRJ       0.034200
     43 H5          19.0420    15.7640    -9.8900 h1         1 GRJ       0.056700
     44 H6          19.8590    13.8840    -8.0500 h1         1 GRJ       0.069700
     45 H7          16.0460    14.3630    -8.7530 h2         1 GRJ       0.078700
     46 H10         16.1740    14.1390   -12.7280 hc         1 GRJ       0.043367
     47 H11         14.8290    14.9840   -15.3430 h1         1 GRJ      -0.024300
     48 H12         17.4220    11.1420   -10.3250 h5         1 GRJ       0.117800
     49 H13         17.1270    15.4180   -15.4630 h1         1 GRJ       0.014700
     50 H14         15.8350    13.5310   -17.2530 h1         1 GRJ       0.055700
     51 H15         18.2300    12.2540    -8.5920 h1         1 GRJ       0.109700
     52 H17         12.0790    15.5720   -10.0490 hn         1 GRJ       0.476000
     53 H18         10.9720    14.7430   -11.0560 hn         1 GRJ       0.476000
     54 H19         16.8630    12.2320    -6.8580 ho         1 GRJ       0.514000
     55 H20         18.3730    15.1060    -6.6520 ho         1 GRJ       0.506000
     56 H21         17.1460    11.1260   -15.9220 ho         1 GRJ       0.601000
     57 H22         16.7530    15.6150   -17.7930 ho         1 GRJ       0.475000
     58 H23         14.0700    12.9730   -14.5490 ho         1 GRJ       0.476000
     59 H16         11.9070    10.9220   -12.8460 ho         1 GRJ       0.462000
     60 H8          15.9150    15.7950   -13.2860 hc         1 GRJ       0.043367
     61 H9          14.5370    14.7770   -12.8960 hc         1 GRJ       0.043367
@<TRIPOS>BOND
     1     1    15 2   
     2     1    16 1   
     3     2    10 ar  
     4     2    17 ar  
     5     3     4 1   
     6     3    19 1   
     7     3    26 1   
     8     3    39 1   
     9     4    13 1   
    10     4    23 1   
    11     4    40 1   
    12     5     6 1   
    13     5    34 1   
    14     5    41 1   
    15     5    42 1   
    16     6     7 1   
    17     6    35 1   
    18     6    43 1   
    19     7    20 1   
    20     7    25 1   
    21     7    44 1   
    22     8    11 1   
    23     8    20 1   
    24     8    35 1   
    25     8    45 1   
    26     9    11 1   
    27     9    16 ar  
    28     9    21 ar  
    29    10    16 ar  
    30    10    36 1   
    31    11    15 1   
    32    12    14 1   
    33    12    46 1   
    34    12    60 1   
    35    12    61 1   
    36    13    18 1   
    37    14    18 1   
    38    14    28 1   
    39    14    47 1   
    40    15    48 1   
    41    17    21 ar  
    42    17    22 1   
    43    18    19 1   
    44    18    49 1   
    45    19    27 1   
    46    19    50 1   
    47    20    24 1   
    48    20    51 1   
    49    22    52 1   
    50    22    53 1   
    51    23    37 1   
    52    24    54 1   
    53    25    55 1   
    54    26    56 1   
    55    27    57 1   
    56    28    58 1   
    57    29    37 1   
    58    30    37 1   
    59    31    37 1   
    60    31    38 1   
    61    32    38 1   
    62    33    38 1   
    63    34    38 1   
    64    36    59 1   
@<TRIPOS>SUBSTRUCTURE
     1 GRJ         1 TEMP              0 ****  ****    0 ROOT
