@<TRIPOS>MOLECULE
GRJ
   61    64     1     0     0
SMALL
No Charge or Current Charge


@<TRIPOS>ATOM
      1 N1          14.4360    11.5370   -11.6140 nc         1 GRJ      -0.480100
      2 N3          12.0680    11.2910    -8.7460 nb         1 GRJ      -0.394000
      3 C4          19.1120    12.5530   -16.9350 c5         1 GRJ       0.152300
      4 C5          19.4530    12.7620   -15.4020 c5         1 GRJ       0.437300
      5 C6          19.1750    13.6520   -11.2240 c3         1 GRJ       0.229600
      6 C7          18.3620    14.8590   -10.6580 c5         1 GRJ       0.160300
      7 C8          18.3380    14.9810    -9.0990 c5         1 GRJ       0.152300
      8 C10         16.1540    14.3670    -9.9400 c5         1 GRJ       0.300300
      9 C13         14.2370    12.7180    -9.6590 ca         1 GRJ       0.134500
     10 C15         12.6170    10.9840    -9.9340 ca         1 GRJ       0.431300
     11 N           15.2980    13.2560   -10.3370 na         1 GRJ      -0.302300
     12 C           15.9150    15.2490   -14.5320 c3         1 GRJ      -0.120100
     13 O           18.3120    13.4540   -14.8940 os         1 GRJ      -0.443000
     14 C1          16.4970    14.8440   -15.9020 c3         1 GRJ       0.182300
     15 C11         15.3820    12.4920   -11.5160 cd         1 GRJ       0.458700
     16 C12         13.7330    11.6990   -10.4280 ca         1 GRJ      -0.058600
     17 C14         12.6480    12.3000    -8.0850 ca         1 GRJ       0.393900
     18 C2          18.0230    14.4940   -15.8610 c5         1 GRJ       0.159300
     19 C3          18.6890    14.0400   -17.2300 c5         1 GRJ       0.083300
     20 C9          17.1280    14.0740    -8.7430 c5         1 GRJ       0.090300
     21 N2          13.7040    13.0410    -8.4640 nb         1 GRJ      -0.266000
     22 N4          12.0910    12.6040    -6.8950 nv         1 GRJ      -1.075900
     23 O1          19.7280    11.5460   -14.6740 os         1 GRJ      -0.574400
     24 O10         16.5860    14.4190    -7.4440 oh         1 GRJ      -0.738000
     25 O11         18.0770    16.3130    -8.6340 oh         1 GRJ      -0.736000
     26 O12         18.0480    11.6310   -17.2680 oh         1 GRJ      -0.787000
     27 O13         19.8410    14.8490   -17.5410 oh         1 GRJ      -0.727000
     28 O14         15.7100    13.7750   -16.4410 oh         1 GRJ      -0.660000
     29 O2          19.0550     9.1930   -13.9090 o          1 GRJ      -0.820500
     30 O3          17.4220    10.5440   -15.1130 o          1 GRJ      -0.820500
     31 O4          18.1260    11.3320   -12.8330 os         1 GRJ      -0.714800
     32 O5          18.6000     9.8730   -10.8090 o          1 GRJ      -0.839000
     33 O6          20.5150    11.0830   -11.8350 o          1 GRJ      -0.839000
     34 O7          18.6250    12.4000   -10.7860 os         1 GRJ      -0.619400
     35 O8          16.9670    14.7920   -11.0600 os         1 GRJ      -0.440000
     36 O9          12.0480     9.9620   -10.6240 oh         1 GRJ      -0.596300
     37 P           18.5560    10.5790   -14.1450 p5         1 GRJ       1.480800
     38 P1          19.0450    11.0680   -11.5840 p5         1 GRJ       1.467800
     39 H1          20.0200    12.2900   -17.4940 h1         1 GRJ       0.051700
     40 H2          20.3310    13.4140   -15.3190 h2         1 GRJ       0.023700
     41 H3          20.2170    13.7460   -10.8910 h1         1 GRJ       0.034200
     42 H4          19.1710    13.7210   -12.3190 h1         1 GRJ       0.034200
     43 H5          18.8000    15.7640   -11.1000 h1         1 GRJ       0.056700
     44 H6          19.2670    14.5960    -8.6550 h1         1 GRJ       0.069700
     45 H7          15.4780    15.1880    -9.6710 h2         1 GRJ       0.078700
     46 H10         15.9510    14.4090   -13.8290 hc         1 GRJ       0.043367
     47 H11         16.3920    15.7140   -16.5630 h1         1 GRJ      -0.024300
     48 H12         16.1410    12.6980   -12.2610 h5         1 GRJ       0.117800
     49 H13         18.5330    15.3990   -15.5040 h1         1 GRJ       0.014700
     50 H14         17.9680    14.0820   -18.0600 h1         1 GRJ       0.055700
     51 H15         17.4300    13.0170    -8.7610 h1         1 GRJ       0.109700
     52 H17         12.3260    13.4940    -6.4640 hn         1 GRJ       0.476000
     53 H18         11.1770    12.2140    -6.6770 hn         1 GRJ       0.476000
     54 H19         15.8080    13.8300    -7.2870 ho         1 GRJ       0.514000
     55 H20         17.4480    16.1500    -7.8850 ho         1 GRJ       0.506000
     56 H21         17.7060    11.2510   -16.3850 ho         1 GRJ       0.601000
     57 H22         19.5120    15.7110   -17.8860 ho         1 GRJ       0.475000
     58 H23         14.7820    14.0930   -16.4770 ho         1 GRJ       0.476000
     59 H16         11.3090     9.6450   -10.0650 ho         1 GRJ       0.462000
     60 H8          16.4900    16.0780   -14.1030 hc         1 GRJ       0.043367
     61 H9          14.8730    15.5740   -14.6300 hc         1 GRJ       0.043367
@<TRIPOS>BOND
     1     1    15 2   
     2     1    16 1   
     3     2    10 ar  
     4     2    17 ar  
     5     3     4 1   
     6     3    19 1   
     7     3    26 1   
     8     3    39 1   
     9     4    13 1   
    10     4    23 1   
    11     4    40 1   
    12     5     6 1   
    13     5    34 1   
    14     5    41 1   
    15     5    42 1   
    16     6     7 1   
    17     6    35 1   
    18     6    43 1   
    19     7    20 1   
    20     7    25 1   
    21     7    44 1   
    22     8    11 1   
    23     8    20 1   
    24     8    35 1   
    25     8    45 1   
    26     9    11 1   
    27     9    16 ar  
    28     9    21 ar  
    29    10    16 ar  
    30    10    36 1   
    31    11    15 1   
    32    12    14 1   
    33    12    46 1   
    34    12    60 1   
    35    12    61 1   
    36    13    18 1   
    37    14    18 1   
    38    14    28 1   
    39    14    47 1   
    40    15    48 1   
    41    17    21 ar  
    42    17    22 1   
    43    18    19 1   
    44    18    49 1   
    45    19    27 1   
    46    19    50 1   
    47    20    24 1   
    48    20    51 1   
    49    22    52 1   
    50    22    53 1   
    51    23    37 1   
    52    24    54 1   
    53    25    55 1   
    54    26    56 1   
    55    27    57 1   
    56    28    58 1   
    57    29    37 1   
    58    30    37 1   
    59    31    37 1   
    60    31    38 1   
    61    32    38 1   
    62    33    38 1   
    63    34    38 1   
    64    36    59 1   
@<TRIPOS>SUBSTRUCTURE
     1 GRJ         1 TEMP              0 ****  ****    0 ROOT
