@<TRIPOS>MOLECULE
GRK
   38    39     1     0     0
SMALL
bcc


@<TRIPOS>ATOM
      1 C8           2.0250    -1.9580     0.0130 ca         1 GRK       0.109100
      2 C5           2.9530     0.6410    -0.3490 ca         1 GRK      -0.161600
      3 C6           3.8500    -0.4070    -0.2140 ca         1 GRK      -0.095000
      4 C10          1.5800     0.3870    -0.3200 ca         1 GRK      -0.080000
      5 C12          2.3340    -4.2930     0.3520 c3         1 GRK       0.131700
      6 C14         -1.3440    -0.4570    -0.2260 c          1 GRK       0.670100
      7 C16         -2.6490    -1.2290    -0.1070 c3         1 GRK      -0.113100
      8 C17         -3.8420    -0.3260    -0.0220 ca         1 GRK      -0.072300
      9 C18         -4.2630     0.1750     1.2060 ca         1 GRK      -0.109500
     10 C19         -5.3600     1.0210     1.2890 ca         1 GRK      -0.126500
     11 C20         -6.0510     1.3800     0.1390 ca         1 GRK      -0.121000
     12 C21         -5.6390     0.8850    -1.0910 ca         1 GRK      -0.126500
     13 C22         -4.5400     0.0390    -1.1690 ca         1 GRK      -0.109500
     14 C3           3.3880     2.0470    -0.5800 c          1 GRK       0.688700
     15 C7           3.3860    -1.7040    -0.0350 ca         1 GRK      -0.200000
     16 C9           1.1010    -0.8980    -0.1280 ca         1 GRK       0.044600
     17 N13         -0.2500    -1.2420    -0.0550 ns         1 GRK      -0.473100
     18 N2           4.5530     2.3660     0.0130 ns         1 GRK      -0.462400
     19 O1           5.1330     3.5750    -0.2100 oh         1 GRK      -0.373100
     20 O11          1.4830    -3.1740     0.1840 os         1 GRK      -0.339900
     21 O15         -1.3040     0.7340    -0.4670 o          1 GRK      -0.559100
     22 O4           2.7330     2.8400    -1.2370 o          1 GRK      -0.564100
     23 H1           4.9190    -0.2470    -0.2710 ha         1 GRK       0.135000
     24 H2           0.8890     1.2060    -0.4350 ha         1 GRK       0.190000
     25 H3           2.9710    -4.4490    -0.5220 h1         1 GRK       0.044700
     26 H4           2.9620    -4.1910     1.2400 h1         1 GRK       0.044700
     27 H5           1.6850    -5.1560     0.4740 h1         1 GRK       0.044700
     28 H6          -2.7270    -1.8850    -0.9810 hc         1 GRK       0.065200
     29 H7          -2.6020    -1.8900     0.7620 hc         1 GRK       0.065200
     30 H8          -3.7320    -0.1030     2.1100 ha         1 GRK       0.127500
     31 H9          -5.6760     1.3990     2.2530 ha         1 GRK       0.130500
     32 H10         -6.9090     2.0370     0.2020 ha         1 GRK       0.130000
     33 H11         -6.1740     1.1550    -1.9920 ha         1 GRK       0.130500
     34 H12         -4.2260    -0.3450    -2.1320 ha         1 GRK       0.127500
     35 H13          4.1050    -2.5060     0.0530 ha         1 GRK       0.139000
     36 H14         -0.4310    -2.2160     0.1400 hn         1 GRK       0.331500
     37 H15          5.0360     1.7640     0.6620 hn         1 GRK       0.339500
     38 H16          4.7450     4.1910     0.4260 ho         1 GRK       0.397000
@<TRIPOS>BOND
     1     1    15 ar  
     2     1    16 ar  
     3     1    20 1   
     4     2     3 ar  
     5     2     4 ar  
     6     2    14 1   
     7     3    15 ar  
     8     3    23 1   
     9     4    16 ar  
    10     4    24 1   
    11     5    20 1   
    12     5    25 1   
    13     5    26 1   
    14     5    27 1   
    15     6     7 1   
    16     6    17 1   
    17     6    21 2   
    18     7     8 1   
    19     7    28 1   
    20     7    29 1   
    21     8     9 ar  
    22     8    13 ar  
    23     9    10 ar  
    24     9    30 1   
    25    10    11 ar  
    26    10    31 1   
    27    11    12 ar  
    28    11    32 1   
    29    12    13 ar  
    30    12    33 1   
    31    13    34 1   
    32    14    18 1   
    33    14    22 2   
    34    15    35 1   
    35    16    17 1   
    36    17    36 1   
    37    18    19 1   
    38    18    37 1   
    39    19    38 1   
@<TRIPOS>SUBSTRUCTURE
     1 GRK         1 TEMP              0 ****  ****    0 ROOT
