@<TRIPOS>MOLECULE
GRK
   38    39     1     0     0
SMALL
No Charge or Current Charge


@<TRIPOS>ATOM
      1 C8           1.6170    -1.5340     0.4600 ca         1 GRK       0.109100
      2 C5           2.9190     0.8370    -0.3990 ca         1 GRK      -0.161600
      3 C6           3.5810    -0.0830     0.4470 ca         1 GRK      -0.077000
      4 C10          1.5940     0.5510    -0.8030 ca         1 GRK      -0.062000
      5 C12          1.5580    -3.6660     1.7170 c3         1 GRK       0.154900
      6 C14         -1.3600    -0.2930    -1.5060 c          1 GRK       0.603100
      7 C16         -2.6800    -1.0600    -1.6530 c3         1 GRK      -0.113100
      8 C17         -3.7180    -0.5380    -0.6650 ca         1 GRK      -0.072300
      9 C18         -3.8000    -1.0810     0.6330 ca         1 GRK      -0.091500
     10 C19         -4.7520    -0.5950     1.5450 ca         1 GRK      -0.108500
     11 C20         -5.6280     0.4360     1.1670 ca         1 GRK      -0.103000
     12 C21         -5.5500     0.9830    -0.1250 ca         1 GRK      -0.108500
     13 C22         -4.5980     0.4970    -1.0380 ca         1 GRK      -0.091500
     14 C3           3.5830     2.1150    -0.8790 c          1 GRK       0.621700
     15 C7           2.9370    -1.2550     0.8700 ca         1 GRK      -0.182000
     16 C9           0.9370    -0.6270    -0.3790 ca         1 GRK      -0.048000
     17 N13         -0.3960    -0.9600    -0.7620 ns         1 GRK      -0.147000
     18 N2           4.9080     2.3130    -0.5000 ns         1 GRK      -0.395400
     19 O1           5.7100     3.3590    -1.1020 oh         1 GRK      -0.412100
     20 O11          0.9530    -2.6810     0.8590 os         1 GRK      -0.363100
     21 O15         -1.2060     0.8190    -1.9990 o          1 GRK      -0.559100
     22 O4           2.9840     2.9420    -1.5570 o          1 GRK      -0.564100
     23 H1           4.5970     0.0960     0.7930 ha         1 GRK       0.117000
     24 H2           1.0890     1.2570    -1.4550 ha         1 GRK       0.172000
     25 H3           2.4590    -4.0870     1.2530 h1         1 GRK       0.044700
     26 H4           1.8310    -3.2260     2.6840 h1         1 GRK       0.044700
     27 H5           0.8570    -4.4890     1.9040 h1         1 GRK       0.044700
     28 H6          -3.0490    -0.9320    -2.6770 hc         1 GRK       0.065200
     29 H7          -2.5120    -2.1270    -1.4600 hc         1 GRK       0.065200
     30 H8          -3.1260    -1.8790     0.9370 ha         1 GRK       0.109500
     31 H9          -4.8110    -1.0180     2.5460 ha         1 GRK       0.112500
     32 H10         -6.3650     0.8120     1.8740 ha         1 GRK       0.112000
     33 H11         -6.2270     1.7820    -0.4190 ha         1 GRK       0.112500
     34 H12         -4.5430     0.9290    -2.0360 ha         1 GRK       0.109500
     35 H13          3.4810    -1.9360     1.5190 ha         1 GRK       0.121000
     36 H14         -0.6950    -1.8620    -0.4140 hn         1 GRK       0.165000
     37 H15          5.4230     1.5440    -0.0780 hn         1 GRK       0.339500
     38 H16          6.1100     3.8210    -0.3270 ho         1 GRK       0.436000
@<TRIPOS>BOND
     1     1    15 ar  
     2     1    16 ar  
     3     1    20 1   
     4     2     3 ar  
     5     2     4 ar  
     6     2    14 1   
     7     3    15 ar  
     8     3    23 1   
     9     4    16 ar  
    10     4    24 1   
    11     5    20 1   
    12     5    25 1   
    13     5    26 1   
    14     5    27 1   
    15     6     7 1   
    16     6    17 1   
    17     6    21 2   
    18     7     8 1   
    19     7    28 1   
    20     7    29 1   
    21     8     9 ar  
    22     8    13 ar  
    23     9    10 ar  
    24     9    30 1   
    25    10    11 ar  
    26    10    31 1   
    27    11    12 ar  
    28    11    32 1   
    29    12    13 ar  
    30    12    33 1   
    31    13    34 1   
    32    14    18 1   
    33    14    22 2   
    34    15    35 1   
    35    16    17 1   
    36    17    36 1   
    37    18    19 1   
    38    18    37 1   
    39    19    38 1   
@<TRIPOS>SUBSTRUCTURE
     1 GRK         1 TEMP              0 ****  ****    0 ROOT
