@<TRIPOS>MOLECULE
GRL
   79    82     1     0     0
SMALL
No Charge or Current Charge


@<TRIPOS>ATOM
      1 C11         -9.4360    16.1150    22.5700 c5         1 GRL       0.190300
      2 C12         -8.0320    15.4610    22.3450 c5         1 GRL      -0.095400
      3 O1          -7.9970    18.8310    21.9620 os         1 GRL      -0.454000
      4 C14         -6.6460    18.8460    22.4550 c5         1 GRL       0.152600
      5 C15         -7.1380    16.6030    21.7540 c5         1 GRL      -0.093700
      6 C16         -9.5580    17.0510    21.3360 c5         1 GRL      -0.083400
      7 C2          -6.4390    17.3860    22.9180 c5         1 GRL      -0.105400
      8 C1          -8.1290    17.6470    21.1480 c5         1 GRL       0.157300
      9 O13         -9.4370    16.9370    23.7650 os         1 GRL      -0.457100
     10 C21         -9.4420    16.2490    24.9420 c          1 GRL       0.637100
     11 C22         -8.9610    16.7560    27.3490 c3         1 GRL       0.102700
     12 C23         -7.9920    17.7660    28.0220 c3         1 GRL      -0.057100
     13 C24         -6.7140    17.9810    27.2130 ca         1 GRL      -0.078300
     14 C25         -5.7970    16.9250    27.0450 ca         1 GRL      -0.097500
     15 C26         -4.6270    17.1130    26.2900 ca         1 GRL      -0.110000
     16 C27         -4.3640    18.3610    25.7000 ca         1 GRL      -0.109000
     17 C28         -5.2720    19.4190    25.8660 ca         1 GRL      -0.110000
     18 C29         -6.4450    19.2300    26.6180 ca         1 GRL      -0.097500
     19 O21         -9.5810    15.0440    25.0870 o          1 GRL      -0.547000
     20 N21         -9.1950    17.1310    25.9500 ns         1 GRL      -0.497900
     21 C31        -10.3050    16.5070    28.1090 c3         1 GRL       0.151300
     22 C32        -10.1060    15.9130    29.5360 c3         1 GRL       0.176800
     23 C33         -9.7010    13.5160    28.7590 c3         1 GRL       0.197800
     24 C34        -11.0590    12.8350    29.1230 c3         1 GRL      -0.091700
     25 C35        -11.0170    11.3230    28.7970 c3         1 GRL      -0.089100
     26 C36        -12.2850    13.4900    28.4360 c3         1 GRL      -0.089100
     27 O31        -11.0950    17.7160    28.1780 oh         1 GRL      -0.660000
     28 O32         -7.1330    14.7580    30.9690 o          1 GRL      -0.544500
     29 O33         -8.8590    12.9150    31.4120 o          1 GRL      -0.544500
     30 N31         -9.2840    14.6740    29.5990 n3         1 GRL      -0.754500
     31 S31         -8.5240    14.3080    31.0930 sy         1 GRL       1.193600
     32 C41         -9.4080    15.3390    32.2840 ca         1 GRL      -0.301500
     33 C42        -10.6670    14.9340    32.7710 ca         1 GRL      -0.020500
     34 C43        -11.3590    15.7400    33.6910 ca         1 GRL      -0.109000
     35 C44        -10.8030    16.9550    34.1360 ca         1 GRL      -0.033300
     36 C45         -9.5430    17.3550    33.6500 ca         1 GRL      -0.109000
     37 C46         -8.8460    16.5530    32.7300 ca         1 GRL      -0.020500
     38 C3         -11.5540    17.8250    35.1380 c3         1 GRL       0.198900
     39 O2         -12.3950    18.7660    34.4590 oh         1 GRL      -0.661000
     40 H11        -10.2560    15.3840    22.6190 h1         1 GRL       0.076700
     41 H121        -8.1230    14.6460    21.6180 hc         1 GRL       0.064200
     42 H122        -7.6080    15.0080    23.2490 hc         1 GRL       0.064200
     43 H141        -6.5460    19.5750    23.2690 h1         1 GRL       0.044700
     44 H142        -5.9640    19.1190    21.6380 h1         1 GRL       0.044700
     45 H15         -6.4180    16.2360    21.0120 hc         1 GRL       0.056700
     46 H161       -10.3220    17.8250    21.4710 hc         1 GRL       0.067700
     47 H162        -9.8470    16.4740    20.4510 hc         1 GRL       0.067700
     48 H21         -6.8950    17.2230    23.9000 hc         1 GRL       0.056200
     49 H22A        -5.3780    17.1310    23.0140 hc         1 GRL       0.056200
     50 H1          -7.9000    17.8960    20.1020 h1         1 GRL       0.049700
     51 H22         -8.4330    15.7930    27.3290 h1         1 GRL       0.101700
     52 H231        -7.7240    17.4020    29.0200 hc         1 GRL       0.058200
     53 H232        -8.5050    18.7230    28.1720 hc         1 GRL       0.058200
     54 H25         -5.9900    15.9560    27.5010 ha         1 GRL       0.112500
     55 H26         -3.9240    16.2930    26.1620 ha         1 GRL       0.110500
     56 H27         -3.4580    18.5070    25.1150 ha         1 GRL       0.109000
     57 H28         -5.0700    20.3850    25.4090 ha         1 GRL       0.110500
     58 H29         -7.1420    20.0560    26.7360 ha         1 GRL       0.112500
     59 HN21        -9.0750    18.0950    25.6700 hn         1 GRL       0.331500
     60 H31        -10.8600    15.7610    27.5270 h1         1 GRL       0.090700
     61 H321       -11.0870    15.7400    29.9960 h1         1 GRL       0.061200
     62 H322        -9.6260    16.7020    30.1280 h1         1 GRL       0.061200
     63 H331        -9.7390    13.8060    27.7010 h1         1 GRL       0.074700
     64 H332        -8.9110    12.7530    28.8070 h1         1 GRL       0.074700
     65 H34        -11.2110    12.9170    30.2050 hc         1 GRL       0.051700
     66 H351       -11.9540    10.8350    29.0920 hc         1 GRL       0.038700
     67 H352       -10.2000    10.8320    29.3380 hc         1 GRL       0.038700
     68 H353       -10.8660    11.1590    27.7230 hc         1 GRL       0.038700
     69 H361       -12.1630    13.5020    27.3460 hc         1 GRL       0.038700
     70 H362       -12.4420    14.5170    28.7780 hc         1 GRL       0.038700
     71 H363       -13.2000    12.9310    28.6680 hc         1 GRL       0.038700
     72 HO31       -10.5360    18.4140    28.5810 ho         1 GRL       0.440000
     73 H42        -11.1150    13.9990    32.4380 ha         1 GRL       0.133000
     74 H43        -12.3320    15.4210    34.0570 ha         1 GRL       0.120500
     75 H45         -9.1040    18.2920    33.9850 ha         1 GRL       0.120500
     76 H46         -7.8740    16.8830    32.3650 ha         1 GRL       0.133000
     77 H31A       -10.8280    18.3510    35.7740 h1         1 GRL       0.034200
     78 H32        -12.1550    17.1810    35.7950 h1         1 GRL       0.034200
     79 HO2        -12.8490    19.2930    35.1530 ho         1 GRL       0.445000
@<TRIPOS>BOND
     1     1     2 1   
     2     1     6 1   
     3     1     9 1   
     4     1    40 1   
     5     2     5 1   
     6     2    41 1   
     7     2    42 1   
     8     3     4 1   
     9     3     8 1   
    10     4     7 1   
    11     4    43 1   
    12     4    44 1   
    13     5     7 1   
    14     5     8 1   
    15     5    45 1   
    16     6     8 1   
    17     6    46 1   
    18     6    47 1   
    19     7    48 1   
    20     7    49 1   
    21     8    50 1   
    22     9    10 1   
    23    10    19 2   
    24    10    20 1   
    25    11    12 1   
    26    11    20 1   
    27    11    21 1   
    28    11    51 1   
    29    12    13 1   
    30    12    52 1   
    31    12    53 1   
    32    13    14 ar  
    33    13    18 ar  
    34    14    15 ar  
    35    14    54 1   
    36    15    16 ar  
    37    15    55 1   
    38    16    17 ar  
    39    16    56 1   
    40    17    18 ar  
    41    17    57 1   
    42    18    58 1   
    43    20    59 1   
    44    21    22 1   
    45    21    27 1   
    46    21    60 1   
    47    22    30 1   
    48    22    61 1   
    49    22    62 1   
    50    23    24 1   
    51    23    30 1   
    52    23    63 1   
    53    23    64 1   
    54    24    25 1   
    55    24    26 1   
    56    24    65 1   
    57    25    66 1   
    58    25    67 1   
    59    25    68 1   
    60    26    69 1   
    61    26    70 1   
    62    26    71 1   
    63    27    72 1   
    64    28    31 2   
    65    29    31 2   
    66    30    31 1   
    67    31    32 1   
    68    32    33 ar  
    69    32    37 ar  
    70    33    34 ar  
    71    33    73 1   
    72    34    35 ar  
    73    34    74 1   
    74    35    36 ar  
    75    35    38 1   
    76    36    37 ar  
    77    36    75 1   
    78    37    76 1   
    79    38    39 1   
    80    38    77 1   
    81    38    78 1   
    82    39    79 1   
@<TRIPOS>SUBSTRUCTURE
     1 GRL         1 TEMP              0 ****  ****    0 ROOT
