@<TRIPOS>MOLECULE
GRL
   79    82     1     0     0
SMALL
abcg2


@<TRIPOS>ATOM
      1 C11         -8.3710    15.8090    22.4310 c5         1 GRL       0.190300
      2 C12         -6.9020    16.0650    22.0920 c5         1 GRL      -0.095400
      3 O1          -8.8600    18.7240    21.1420 os         1 GRL      -0.454000
      4 C14         -7.7490    19.5820    21.4170 c5         1 GRL       0.152600
      5 C15         -6.8900    17.3510    21.2440 c5         1 GRL      -0.093700
      6 C16         -9.1250    16.2940    21.1970 c5         1 GRL      -0.083400
      7 C2          -6.6990    18.6650    22.0280 c5         1 GRL      -0.105400
      8 C1          -8.3270    17.4810    20.6560 c5         1 GRL       0.157300
      9 O13         -8.7910    16.6260    23.5560 os         1 GRL      -0.457100
     10 C21         -8.5160    16.1500    24.7910 c          1 GRL       0.637100
     11 C22         -8.6220    16.8610    27.1500 c3         1 GRL       0.102700
     12 C23         -7.4110    17.6840    27.6310 c3         1 GRL      -0.057100
     13 C24         -6.1490    17.3090    26.9020 ca         1 GRL      -0.078300
     14 C25         -5.3880    16.2150    27.3210 ca         1 GRL      -0.097500
     15 C26         -4.2580    15.8230    26.6140 ca         1 GRL      -0.110000
     16 C27         -3.8700    16.5200    25.4720 ca         1 GRL      -0.109000
     17 C28         -4.6170    17.6150    25.0500 ca         1 GRL      -0.110000
     18 C29         -5.7460    18.0050    25.7630 ca         1 GRL      -0.097500
     19 O21         -8.0410    15.0450    25.0080 o          1 GRL      -0.547000
     20 N21         -8.8630    17.0510    25.7320 ns         1 GRL      -0.497900
     21 C31         -9.9160    17.1740    27.9120 c3         1 GRL       0.151300
     22 C32         -9.8480    16.8460    29.4050 c3         1 GRL       0.176800
     23 C33        -10.5150    14.4180    29.2700 c3         1 GRL       0.197800
     24 C34        -11.9060    14.5560    29.9310 c3         1 GRL      -0.091700
     25 C35        -12.4530    13.1660    30.2660 c3         1 GRL      -0.089100
     26 C36        -12.9030    15.3150    29.0520 c3         1 GRL      -0.089100
     27 O31        -10.3330    18.5280    27.7410 oh         1 GRL      -0.660000
     28 O32         -7.4750    16.1180    30.8950 o          1 GRL      -0.544500
     29 O33         -8.0720    13.7090    30.7060 o          1 GRL      -0.544500
     30 N31         -9.5120    15.4380    29.6390 n3         1 GRL      -0.754500
     31 S31         -8.4830    15.0840    30.8690 sy         1 GRL       1.193600
     32 C41         -9.4250    15.1970    32.3670 ca         1 GRL      -0.301500
     33 C42         -9.9530    14.0450    32.9390 ca         1 GRL      -0.020500
     34 C43        -10.7750    14.1570    34.0520 ca         1 GRL      -0.109000
     35 C44        -11.0760    15.4060    34.5930 ca         1 GRL      -0.033300
     36 C45        -10.5260    16.5490    34.0120 ca         1 GRL      -0.109000
     37 C46         -9.7010    16.4550    32.9010 ca         1 GRL      -0.020500
     38 C3         -12.0090    15.5240    35.7650 c3         1 GRL       0.198900
     39 O2         -13.3410    15.6950    35.2540 oh         1 GRL      -0.661000
     40 H11         -8.5770    14.7700    22.6760 h1         1 GRL       0.076700
     41 H121        -6.5400    15.2200    21.5020 hc         1 GRL       0.064200
     42 H122        -6.2800    16.1350    22.9830 hc         1 GRL       0.064200
     43 H141        -8.0940    20.3710    22.0850 h1         1 GRL       0.044700
     44 H142        -7.3850    20.0390    20.4870 h1         1 GRL       0.044700
     45 H15         -6.1520    17.2830    20.4450 hc         1 GRL       0.056700
     46 H161       -10.1630    16.5490    21.4060 hc         1 GRL       0.067700
     47 H162        -9.1170    15.4870    20.4610 hc         1 GRL       0.067700
     48 H21         -6.9130    18.5110    23.0840 hc         1 GRL       0.056200
     49 H22A        -5.6870    19.0620    21.9390 hc         1 GRL       0.056200
     50 H1          -8.3250    17.5060    19.5630 h1         1 GRL       0.049700
     51 H22         -8.4040    15.8040    27.2920 h1         1 GRL       0.101700
     52 H231        -7.2800    17.5140    28.7000 hc         1 GRL       0.058200
     53 H232        -7.6180    18.7470    27.4830 hc         1 GRL       0.058200
     54 H25         -5.6910    15.6650    28.2040 ha         1 GRL       0.112500
     55 H26         -3.6790    14.9720    26.9520 ha         1 GRL       0.110500
     56 H27         -2.9910    16.2130    24.9180 ha         1 GRL       0.109000
     57 H28         -4.3240    18.1620    24.1630 ha         1 GRL       0.110500
     58 H29         -6.3260    18.8560    25.4280 ha         1 GRL       0.112500
     59 HN21        -9.1910    17.9530    25.4210 hn         1 GRL       0.331500
     60 H31        -10.7060    16.5860    27.4450 h1         1 GRL       0.090700
     61 H321       -10.8060    17.1010    29.8630 h1         1 GRL       0.061200
     62 H322        -9.0880    17.4660    29.8740 h1         1 GRL       0.061200
     63 H331       -10.6120    14.4370    28.1830 h1         1 GRL       0.074700
     64 H332       -10.0780    13.4560    29.5220 h1         1 GRL       0.074700
     65 H34        -11.7810    15.1040    30.8680 hc         1 GRL       0.051700
     66 H351       -13.4390    13.2400    30.7290 hc         1 GRL       0.038700
     67 H352       -11.7900    12.6360    30.9510 hc         1 GRL       0.038700
     68 H353       -12.5540    12.5630    29.3580 hc         1 GRL       0.038700
     69 H361       -13.0390    14.7970    28.0990 hc         1 GRL       0.038700
     70 H362       -12.5790    16.3330    28.8340 hc         1 GRL       0.038700
     71 H363       -13.8760    15.3750    29.5440 hc         1 GRL       0.038700
     72 HO31        -9.7210    19.1120    28.2080 ho         1 GRL       0.440000
     73 H42         -9.7250    13.0770    32.5170 ha         1 GRL       0.133000
     74 H43        -11.1870    13.2640    34.5040 ha         1 GRL       0.120500
     75 H45        -10.7440    17.5220    34.4340 ha         1 GRL       0.120500
     76 H46         -9.2750    17.3450    32.4610 ha         1 GRL       0.133000
     77 H31A       -11.7290    16.3840    36.3810 h1         1 GRL       0.034200
     78 H32        -11.9530    14.6210    36.3800 h1         1 GRL       0.034200
     79 HO2        -13.9370    15.7960    36.0080 ho         1 GRL       0.445000
@<TRIPOS>BOND
     1     1     2 1   
     2     1     6 1   
     3     1     9 1   
     4     1    40 1   
     5     2     5 1   
     6     2    41 1   
     7     2    42 1   
     8     3     4 1   
     9     3     8 1   
    10     4     7 1   
    11     4    43 1   
    12     4    44 1   
    13     5     7 1   
    14     5     8 1   
    15     5    45 1   
    16     6     8 1   
    17     6    46 1   
    18     6    47 1   
    19     7    48 1   
    20     7    49 1   
    21     8    50 1   
    22     9    10 1   
    23    10    19 2   
    24    10    20 1   
    25    11    12 1   
    26    11    20 1   
    27    11    21 1   
    28    11    51 1   
    29    12    13 1   
    30    12    52 1   
    31    12    53 1   
    32    13    14 ar  
    33    13    18 ar  
    34    14    15 ar  
    35    14    54 1   
    36    15    16 ar  
    37    15    55 1   
    38    16    17 ar  
    39    16    56 1   
    40    17    18 ar  
    41    17    57 1   
    42    18    58 1   
    43    20    59 1   
    44    21    22 1   
    45    21    27 1   
    46    21    60 1   
    47    22    30 1   
    48    22    61 1   
    49    22    62 1   
    50    23    24 1   
    51    23    30 1   
    52    23    63 1   
    53    23    64 1   
    54    24    25 1   
    55    24    26 1   
    56    24    65 1   
    57    25    66 1   
    58    25    67 1   
    59    25    68 1   
    60    26    69 1   
    61    26    70 1   
    62    26    71 1   
    63    27    72 1   
    64    28    31 2   
    65    29    31 2   
    66    30    31 1   
    67    31    32 1   
    68    32    33 ar  
    69    32    37 ar  
    70    33    34 ar  
    71    33    73 1   
    72    34    35 ar  
    73    34    74 1   
    74    35    36 ar  
    75    35    38 1   
    76    36    37 ar  
    77    36    75 1   
    78    37    76 1   
    79    38    39 1   
    80    38    77 1   
    81    38    78 1   
    82    39    79 1   
@<TRIPOS>SUBSTRUCTURE
     1 GRL         1 TEMP              0 ****  ****    0 ROOT
