@<TRIPOS>MOLECULE
GRM
   59    63     1     0     0
SMALL
No Charge or Current Charge


@<TRIPOS>ATOM
      1 C1          -3.4800    -1.0310     0.3720 c3         1 GRM       0.230800
      2 C2          -4.6340    -1.9940     0.7440 c3         1 GRM      -0.092100
      3 C3          -4.0780     0.1290    -0.4560 ca         1 GRM      -0.074300
      4 N4          -2.3260    -1.6930    -0.3160 n3         1 GRM      -0.726600
      5 C5          -1.7740    -2.8730     0.4280 c6         1 GRM       0.163800
      6 C6          -0.6560    -3.5970    -0.3670 c6         1 GRM      -0.062900
      7 C7           0.4670    -2.6160    -0.7810 c6         1 GRM      -0.143700
      8 C8          -0.1030    -1.3590    -1.4800 c6         1 GRM      -0.062900
      9 C9          -1.2340    -0.7170    -0.6390 c6         1 GRM       0.163800
     10 C10          1.4870    -2.3080     0.3400 c          1 GRM       0.603100
     11 O11          1.1770    -1.7320     1.3730 o          1 GRM      -0.603100
     12 N12          2.7760    -2.7270     0.1000 ns         1 GRM      -0.507900
     13 C13          3.9070    -2.5000     1.0000 c3         1 GRM       0.147300
     14 C14          4.6450    -1.2190     0.6400 ca         1 GRM      -0.118300
     15 C15          4.2120     0.0200     1.1690 ca         1 GRM      -0.082000
     16 C16          4.9140     1.1770     0.8090 ca         1 GRM       0.050100
     17 C17          5.9890     1.1320    -0.0330 ca         1 GRM       0.057100
     18 C18          6.4440    -0.0730    -0.5800 ca         1 GRM      -0.100000
     19 C19          5.7610    -1.2590    -0.2350 ca         1 GRM      -0.104000
     20 O20          4.6270     2.4390     1.2170 os         1 GRM      -0.342100
     21 C21          5.6940     3.2350     0.5870 c5         1 GRM       0.373600
     22 O22          6.5190     2.3600    -0.2630 os         1 GRM      -0.345100
     23 C23         -4.4510     1.3870     0.1060 ca         1 GRM      -0.026000
     24 C24         -4.9780     2.3970    -0.7420 ca         1 GRM      -0.040000
     25 C25         -5.1490     2.1590    -2.1170 ca         1 GRM      -0.102000
     26 C26         -4.8100     0.9150    -2.6620 ca         1 GRM      -0.110000
     27 C27         -4.2850    -0.0890    -1.8380 ca         1 GRM      -0.091000
     28 C28         -4.3290     1.6730     1.4900 ca         1 GRM      -0.103000
     29 C29         -4.7010     2.9280     2.0020 ca         1 GRM      -0.109000
     30 C30         -5.2040     3.9190     1.1490 ca         1 GRM      -0.111000
     31 C31         -5.3450     3.6530    -0.2200 ca         1 GRM      -0.098000
     32 H1          -3.0850    -0.6380     1.3130 h1         1 GRM       0.031700
     33 H2          -5.4890    -1.4280     1.1330 hc         1 GRM       0.042367
     34 H2A         -4.9690    -2.5590    -0.1340 hc         1 GRM       0.042367
     35 H2B         -4.3330    -2.7000     1.5250 hc         1 GRM       0.042367
     36 H5          -1.3800    -2.5570     1.4050 h1         1 GRM       0.043200
     37 H5A         -2.5580    -3.6170     0.6250 h1         1 GRM       0.043200
     38 H6          -0.2450    -4.4250     0.2260 hc         1 GRM       0.050450
     39 H6A         -1.0980    -4.0470    -1.2660 hc         1 GRM       0.050450
     40 H7           1.0470    -3.1410    -1.5520 hc         1 GRM       0.058700
     41 H8           0.6950    -0.6260    -1.6650 hc         1 GRM       0.050450
     42 H8A         -0.5070    -1.6350    -2.4640 hc         1 GRM       0.050450
     43 H9          -1.6230     0.1390    -1.2070 h1         1 GRM       0.043200
     44 H9A         -0.8070    -0.3070     0.2890 h1         1 GRM       0.043200
     45 HN12         2.9500    -3.1930    -0.7820 hn         1 GRM       0.309500
     46 H13          3.5530    -2.4500     2.0380 h1         1 GRM       0.066700
     47 H13A         4.5920    -3.3550     0.9270 h1         1 GRM       0.066700
     48 H15          3.3550     0.0800     1.8350 ha         1 GRM       0.146000
     49 H18          7.2990    -0.0920    -1.2520 ha         1 GRM       0.134000
     50 H19          6.0950    -2.2080    -0.6490 ha         1 GRM       0.116000
     51 H21          5.2480     4.0280    -0.0250 h2         1 GRM       0.065700
     52 H21A         6.3240     3.6730     1.3700 h2         1 GRM       0.065700
     53 H25         -5.5540     2.9340    -2.7630 ha         1 GRM       0.112000
     54 H26         -4.9510     0.7290    -3.7240 ha         1 GRM       0.112000
     55 H27         -4.0250    -1.0490    -2.2790 ha         1 GRM       0.131000
     56 H28         -3.9600     0.9400     2.1980 ha         1 GRM       0.113000
     57 H29         -4.5990     3.1300     3.0660 ha         1 GRM       0.111000
     58 H30         -5.4910     4.8890     1.5480 ha         1 GRM       0.112000
     59 H31         -5.7450     4.4230    -0.8750 ha         1 GRM       0.111000
@<TRIPOS>BOND
     1     1     2 1   
     2     1     3 1   
     3     1     4 1   
     4     1    32 1   
     5     2    33 1   
     6     2    34 1   
     7     2    35 1   
     8     3    23 ar  
     9     3    27 ar  
    10     4     5 1   
    11     4     9 1   
    12     5     6 1   
    13     5    36 1   
    14     5    37 1   
    15     6     7 1   
    16     6    38 1   
    17     6    39 1   
    18     7     8 1   
    19     7    10 1   
    20     7    40 1   
    21     8     9 1   
    22     8    41 1   
    23     8    42 1   
    24     9    43 1   
    25     9    44 1   
    26    10    11 2   
    27    10    12 1   
    28    12    13 1   
    29    12    45 1   
    30    13    14 1   
    31    13    46 1   
    32    13    47 1   
    33    14    15 ar  
    34    14    19 ar  
    35    15    16 ar  
    36    15    48 1   
    37    16    17 ar  
    38    16    20 1   
    39    17    18 ar  
    40    17    22 1   
    41    18    19 ar  
    42    18    49 1   
    43    19    50 1   
    44    20    21 1   
    45    21    22 1   
    46    21    51 1   
    47    21    52 1   
    48    23    24 ar  
    49    23    28 ar  
    50    24    25 ar  
    51    24    31 ar  
    52    25    26 ar  
    53    25    53 1   
    54    26    27 ar  
    55    26    54 1   
    56    27    55 1   
    57    28    29 ar  
    58    28    56 1   
    59    29    30 ar  
    60    29    57 1   
    61    30    31 ar  
    62    30    58 1   
    63    31    59 1   
@<TRIPOS>SUBSTRUCTURE
     1 GRM         1 TEMP              0 ****  ****    0 ROOT
