@<TRIPOS>MOLECULE
GRM
   59    63     1     0     0
SMALL
bcc


@<TRIPOS>ATOM
      1 C1          -2.8270    -0.8110     0.5330 c3         1 GRM       0.230800
      2 C2          -4.0480    -1.4400     1.2080 c3         1 GRM      -0.092100
      3 C3          -3.3280     0.2650    -0.4150 ca         1 GRM      -0.074300
      4 N4          -2.0010    -1.7790    -0.1820 n3         1 GRM      -0.726600
      5 C5          -1.7450    -2.9980     0.5710 c6         1 GRM       0.163800
      6 C6          -0.9190    -3.9930    -0.2370 c6         1 GRM      -0.062900
      7 C7           0.3720    -3.4180    -0.8090 c6         1 GRM      -0.143700
      8 C8           0.0500    -2.0840    -1.4970 c6         1 GRM      -0.062900
      9 C9          -0.7490    -1.1640    -0.5940 c6         1 GRM       0.163800
     10 C10          1.4700    -3.2360     0.2290 c          1 GRM       0.670100
     11 O11          1.2740    -3.2790     1.4350 o          1 GRM      -0.603100
     12 N12          2.6890    -3.0120    -0.3010 ns         1 GRM      -0.574900
     13 C13          3.8450    -2.5960     0.4620 c3         1 GRM       0.147300
     14 C14          4.0780    -1.1070     0.3720 ca         1 GRM      -0.118300
     15 C15          3.1150    -0.2260     0.8990 ca         1 GRM      -0.100000
     16 C16          3.3520     1.1160     0.7660 ca         1 GRM       0.050100
     17 C17          4.4910     1.6070     0.1430 ca         1 GRM       0.057100
     18 C18          5.4450     0.7700    -0.3740 ca         1 GRM      -0.118000
     19 C19          5.2120    -0.6070    -0.2480 ca         1 GRM      -0.122000
     20 O20          2.5770     2.1540     1.1650 os         1 GRM      -0.318900
     21 C21          3.3460     3.3300     0.9540 c5         1 GRM       0.327200
     22 O22          4.4490     2.9630     0.1360 os         1 GRM      -0.321900
     23 C23         -3.5680     1.5980     0.0350 ca         1 GRM      -0.026000
     24 C24         -4.1030     2.5510    -0.8760 ca         1 GRM      -0.040000
     25 C25         -4.3940     2.1640    -2.2040 ca         1 GRM      -0.120000
     26 C26         -4.1650     0.8800    -2.6100 ca         1 GRM      -0.128000
     27 C27         -3.6340    -0.0640    -1.7110 ca         1 GRM      -0.109000
     28 C28         -3.3040     2.0270     1.3620 ca         1 GRM      -0.121000
     29 C29         -3.5480     3.3150     1.7550 ca         1 GRM      -0.127000
     30 C30         -4.0730     4.2550     0.8450 ca         1 GRM      -0.129000
     31 C31         -4.3420     3.8770    -0.4410 ca         1 GRM      -0.116000
     32 H1          -2.2210    -0.3430     1.3260 h1         1 GRM       0.031700
     33 H2          -4.6920    -0.6560     1.6070 hc         1 GRM       0.042367
     34 H2A         -4.6320    -2.0200     0.4920 hc         1 GRM       0.042367
     35 H2B         -3.7780    -2.0860     2.0430 hc         1 GRM       0.042367
     36 H5          -1.2500    -2.7840     1.5290 h1         1 GRM       0.043200
     37 H5A         -2.6930    -3.4810     0.8060 h1         1 GRM       0.043200
     38 H6          -0.7210    -4.8720     0.3790 hc         1 GRM       0.050450
     39 H6A         -1.5260    -4.3330    -1.0810 hc         1 GRM       0.050450
     40 H7           0.7560    -4.1070    -1.5690 hc         1 GRM       0.058700
     41 H8           0.9570    -1.5740    -1.8290 hc         1 GRM       0.050450
     42 H8A         -0.5390    -2.2930    -2.3940 hc         1 GRM       0.050450
     43 H9          -0.9650    -0.2440    -1.1370 h1         1 GRM       0.043200
     44 H9A         -0.1460    -0.8660     0.2840 h1         1 GRM       0.043200
     45 HN12         2.7700    -2.9580    -1.3040 hn         1 GRM       0.309500
     46 H13          3.6950    -2.9020     1.4960 h1         1 GRM       0.066700
     47 H13A         4.7220    -3.1290     0.0940 h1         1 GRM       0.066700
     48 H15          2.2220    -0.5930     1.3890 ha         1 GRM       0.164000
     49 H18          6.3320     1.1480    -0.8630 ha         1 GRM       0.152000
     50 H19          5.9440    -1.2960    -0.6500 ha         1 GRM       0.134000
     51 H21          2.7410     4.0790     0.4430 h2         1 GRM       0.065700
     52 H21A         3.7060     3.7160     1.9130 h2         1 GRM       0.065700
     53 H25         -4.8010     2.8990    -2.8900 ha         1 GRM       0.130000
     54 H26         -4.3900     0.5810    -3.6260 ha         1 GRM       0.130000
     55 H27         -3.4440    -1.0750    -2.0500 ha         1 GRM       0.149000
     56 H28         -2.9030     1.3310     2.0860 ha         1 GRM       0.131000
     57 H29         -3.3360     3.6150     2.7730 ha         1 GRM       0.129000
     58 H30         -4.2610     5.2710     1.1660 ha         1 GRM       0.130000
     59 H31         -4.7460     4.5910    -1.1490 ha         1 GRM       0.129000
@<TRIPOS>BOND
     1     1     2 1   
     2     1     3 1   
     3     1     4 1   
     4     1    32 1   
     5     2    33 1   
     6     2    34 1   
     7     2    35 1   
     8     3    23 ar  
     9     3    27 ar  
    10     4     5 1   
    11     4     9 1   
    12     5     6 1   
    13     5    36 1   
    14     5    37 1   
    15     6     7 1   
    16     6    38 1   
    17     6    39 1   
    18     7     8 1   
    19     7    10 1   
    20     7    40 1   
    21     8     9 1   
    22     8    41 1   
    23     8    42 1   
    24     9    43 1   
    25     9    44 1   
    26    10    11 2   
    27    10    12 1   
    28    12    13 1   
    29    12    45 1   
    30    13    14 1   
    31    13    46 1   
    32    13    47 1   
    33    14    15 ar  
    34    14    19 ar  
    35    15    16 ar  
    36    15    48 1   
    37    16    17 ar  
    38    16    20 1   
    39    17    18 ar  
    40    17    22 1   
    41    18    19 ar  
    42    18    49 1   
    43    19    50 1   
    44    20    21 1   
    45    21    22 1   
    46    21    51 1   
    47    21    52 1   
    48    23    24 ar  
    49    23    28 ar  
    50    24    25 ar  
    51    24    31 ar  
    52    25    26 ar  
    53    25    53 1   
    54    26    27 ar  
    55    26    54 1   
    56    27    55 1   
    57    28    29 ar  
    58    28    56 1   
    59    29    30 ar  
    60    29    57 1   
    61    30    31 ar  
    62    30    58 1   
    63    31    59 1   
@<TRIPOS>SUBSTRUCTURE
     1 GRM         1 TEMP              0 ****  ****    0 ROOT
