@<TRIPOS>MOLECULE
GRN
   22    22     1     0     0
SMALL
No Charge or Current Charge


@<TRIPOS>ATOM
      1 O            2.2600    -1.8080     0.2380 o          1 GRN      -0.718500
      2 C            1.7720    -0.7260     0.5500 c          1 GRN       0.738000
      3 CA           1.0360     0.1690    -0.5600 c3         1 GRN       0.067500
      4 C1           1.2480    -0.4270    -1.9840 c3         1 GRN      -0.041100
      5 N            1.5670     1.5820    -0.6340 n8         1 GRN      -0.992200
      6 CB          -0.4810     0.1540    -0.2280 ca         1 GRN      -0.040300
      7 CG2         -1.1630    -1.0850    -0.1790 ca         1 GRN      -0.112000
      8 CD2         -2.5350    -1.1490     0.1180 ca         1 GRN      -0.122000
      9 CE          -3.2540     0.0260     0.3770 ca         1 GRN      -0.147000
     10 CD1         -2.5970     1.2650     0.3420 ca         1 GRN      -0.122000
     11 CG1         -1.2240     1.3320     0.0450 ca         1 GRN      -0.112000
     12 O1           1.8590    -0.2750     1.6880 o          1 GRN      -0.718500
     13 H1           0.8920    -1.4610    -2.0510 hc         1 GRN       0.019367
     14 H2           0.7030     0.1580    -2.7360 hc         1 GRN       0.019367
     15 H3           2.3110    -0.4220    -2.2560 hc         1 GRN       0.019367
     16 H4           0.9480     2.1390    -1.2310 hn         1 GRN       0.385000
     17 H5           1.4740     2.0080     0.2950 hn         1 GRN       0.385000
     18 H7          -0.6280    -2.0130    -0.3690 ha         1 GRN       0.115000
     19 H8          -3.0400    -2.1120     0.1490 ha         1 GRN       0.088500
     20 H9          -4.3150    -0.0220     0.6080 ha         1 GRN       0.087000
     21 H10         -3.1520     2.1780     0.5460 ha         1 GRN       0.088500
     22 H11         -0.7570     2.3130     0.0330 ha         1 GRN       0.115000
@<TRIPOS>BOND
     1     1     2 1   
     2     2     3 1   
     3     2    12 1   
     4     3     4 1   
     5     3     5 1   
     6     3     6 1   
     7     4    13 1   
     8     4    14 1   
     9     4    15 1   
    10     5    16 1   
    11     5    17 1   
    12     6     7 ar  
    13     6    11 ar  
    14     7     8 ar  
    15     7    18 1   
    16     8     9 ar  
    17     8    19 1   
    18     9    10 ar  
    19     9    20 1   
    20    10    11 ar  
    21    10    21 1   
    22    11    22 1   
@<TRIPOS>SUBSTRUCTURE
     1 GRN         1 TEMP              0 ****  ****    0 ROOT
