@<TRIPOS>MOLECULE
GRN
   22    22     1     0     0
SMALL
abcg2


@<TRIPOS>ATOM
      1 O            1.9920    -1.8040     0.3190 o          1 GRN      -0.718500
      2 C            1.7150    -0.6130     0.5400 c          1 GRN       0.738000
      3 CA           1.0000     0.1870    -0.5970 c3         1 GRN       0.067500
      4 C1           1.2320    -0.4310    -1.9740 c3         1 GRN      -0.041100
      5 N            1.5720     1.5240    -0.6150 n8         1 GRN      -0.992200
      6 CB          -0.4920     0.1400    -0.2550 ca         1 GRN      -0.040300
      7 CG2         -1.1690    -1.0840    -0.2280 ca         1 GRN      -0.112000
      8 CD2         -2.5170    -1.1540     0.0870 ca         1 GRN      -0.122000
      9 CE          -3.2290     0.0020     0.3880 ca         1 GRN      -0.147000
     10 CD1         -2.5700     1.2220     0.3740 ca         1 GRN      -0.122000
     11 CG1         -1.2160     1.2860     0.0590 ca         1 GRN      -0.112000
     12 O1           1.9090     0.0170     1.5980 o          1 GRN      -0.718500
     13 H1           0.8540    -1.4480    -2.0470 hc         1 GRN       0.019367
     14 H2           0.7340     0.1610    -2.7460 hc         1 GRN       0.019367
     15 H3           2.2970    -0.4530    -2.2040 hc         1 GRN       0.019367
     16 H4           1.0340     2.1350    -1.2190 hn         1 GRN       0.385000
     17 H5           1.5390     1.9150     0.3170 hn         1 GRN       0.385000
     18 H7          -0.6300    -1.9980    -0.4430 ha         1 GRN       0.115000
     19 H8          -3.0140    -2.1160     0.1030 ha         1 GRN       0.088500
     20 H9          -4.2820    -0.0510     0.6310 ha         1 GRN       0.087000
     21 H10         -3.1070     2.1320     0.6110 ha         1 GRN       0.088500
     22 H11         -0.7280     2.2530     0.0620 ha         1 GRN       0.115000
@<TRIPOS>BOND
     1     1     2 1   
     2     2     3 1   
     3     2    12 1   
     4     3     4 1   
     5     3     5 1   
     6     3     6 1   
     7     4    13 1   
     8     4    14 1   
     9     4    15 1   
    10     5    16 1   
    11     5    17 1   
    12     6     7 ar  
    13     6    11 ar  
    14     7     8 ar  
    15     7    18 1   
    16     8     9 ar  
    17     8    19 1   
    18     9    10 ar  
    19     9    20 1   
    20    10    11 ar  
    21    10    21 1   
    22    11    22 1   
@<TRIPOS>SUBSTRUCTURE
     1 GRN         1 TEMP              0 ****  ****    0 ROOT
