@<TRIPOS>MOLECULE
GRO
   20    20     1     0     0
SMALL
No Charge or Current Charge


@<TRIPOS>ATOM
      1 O2           0.0210    -1.5260    -2.6060 o          1 GRO      -0.725500
      2 C1           0.2590    -0.4960    -1.9910 c          1 GRO       0.725000
      3 O1           1.3290     0.0930    -2.0600 o          1 GRO      -0.725500
      4 C2          -0.8420     0.0650    -1.0630 c3         1 GRO      -0.174400
      5 C3          -1.3180     1.4690    -1.5160 c3         1 GRO      -0.055100
      6 C7          -0.4000     0.0140     0.4040 ca         1 GRO       0.010700
      7 C6          -0.8340    -1.0470     1.2250 ca         1 GRO      -0.106000
      8 C5          -0.4430    -1.1150     2.5740 ca         1 GRO      -0.124500
      9 C4           0.3880    -0.1230     3.1160 ca         1 GRO      -0.149000
     10 C9           0.8310     0.9360     2.3070 ca         1 GRO      -0.124500
     11 C8           0.4400     1.0040     0.9580 ca         1 GRO      -0.106000
     12 HC2         -1.7140    -0.5930    -1.1700 hc         1 GRO       0.035700
     13 HC31        -0.4950     2.1930    -1.5230 hc         1 GRO       0.015700
     14 HC32        -1.7320     1.4210    -2.5300 hc         1 GRO       0.015700
     15 HC33        -2.1010     1.8440    -0.8460 hc         1 GRO       0.015700
     16 HC6         -1.4770    -1.8240     0.8180 ha         1 GRO       0.107000
     17 HC5         -0.7850    -1.9380     3.1980 ha         1 GRO       0.086500
     18 HC4          0.6910    -0.1750     4.1590 ha         1 GRO       0.084000
     19 HC3          1.4790     1.7040     2.7240 ha         1 GRO       0.086500
     20 H1           0.8010     1.8260     0.3450 ha         1 GRO       0.107000
@<TRIPOS>BOND
     1     1     2 1   
     2     2     3 1   
     3     2     4 1   
     4     4     5 1   
     5     4     6 1   
     6     4    12 1   
     7     5    13 1   
     8     5    14 1   
     9     5    15 1   
    10     6     7 ar  
    11     6    11 ar  
    12     7     8 ar  
    13     7    16 1   
    14     8     9 ar  
    15     8    17 1   
    16     9    10 ar  
    17     9    18 1   
    18    10    11 ar  
    19    10    19 1   
    20    11    20 1   
@<TRIPOS>SUBSTRUCTURE
     1 GRO         1 TEMP              0 ****  ****    0 ROOT
