@<TRIPOS>MOLECULE
GRO
   20    20     1     0     0
SMALL
bcc


@<TRIPOS>ATOM
      1 O2           0.0310    -0.4480    -3.2350 o          1 GRO      -0.830800
      2 C1           0.3590    -0.3940    -2.0320 c          1 GRO       0.935600
      3 O1           1.4920    -0.6020    -1.5630 o          1 GRO      -0.830800
      4 C2          -0.7870    -0.0330    -1.0480 c3         1 GRO      -0.174400
      5 C3          -1.4410     1.2900    -1.4560 c3         1 GRO      -0.055100
      6 C7          -0.3610    -0.0260     0.3940 ca         1 GRO       0.010700
      7 C6          -0.8440    -0.9850     1.2810 ca         1 GRO      -0.124000
      8 C5          -0.4760    -0.9820     2.6220 ca         1 GRO      -0.142500
      9 C4           0.3850    -0.0080     3.1040 ca         1 GRO      -0.167000
     10 C9           0.8740     0.9590     2.2310 ca         1 GRO      -0.142500
     11 C8           0.5080     0.9450     0.8940 ca         1 GRO      -0.124000
     12 HC2         -1.5490    -0.8140    -1.1610 hc         1 GRO       0.035700
     13 HC31        -0.7300     2.1190    -1.4290 hc         1 GRO       0.015700
     14 HC32        -1.8310     1.2250    -2.4700 hc         1 GRO       0.015700
     15 HC33        -2.2690     1.5440    -0.7930 hc         1 GRO       0.015700
     16 HC6         -1.5200    -1.7500     0.9170 ha         1 GRO       0.125000
     17 HC5         -0.8680    -1.7400     3.2890 ha         1 GRO       0.104500
     18 HC4          0.6720     0.0020     4.1480 ha         1 GRO       0.102000
     19 HC3          1.5470     1.7250     2.5960 ha         1 GRO       0.104500
     20 H1           0.9070     1.7040     0.2330 ha         1 GRO       0.125000
@<TRIPOS>BOND
     1     1     2 1   
     2     2     3 1   
     3     2     4 1   
     4     4     5 1   
     5     4     6 1   
     6     4    12 1   
     7     5    13 1   
     8     5    14 1   
     9     5    15 1   
    10     6     7 ar  
    11     6    11 ar  
    12     7     8 ar  
    13     7    16 1   
    14     8     9 ar  
    15     8    17 1   
    16     9    10 ar  
    17     9    18 1   
    18    10    11 ar  
    19    10    19 1   
    20    11    20 1   
@<TRIPOS>SUBSTRUCTURE
     1 GRO         1 TEMP              0 ****  ****    0 ROOT
