@<TRIPOS>MOLECULE
GRQ
   27    26     1     0     0
SMALL
bcc


@<TRIPOS>ATOM
      1 C1          -3.1410    -0.2920     0.0920 c2         1 GRQ      -0.103400
      2 C2          -2.2910     0.7360     0.0850 c2         1 GRQ      -0.185200
      3 C3          -0.8720     0.7090     0.5640 c3         1 GRQ      -0.034200
      4 C4           0.1160     0.6960    -0.6150 c3         1 GRQ      -0.055200
      5 C5           1.5500     0.6610    -0.1790 c2         1 GRQ      -0.032400
      6 C6           2.3080    -0.4110    -0.4760 ce         1 GRQ      -0.287200
      7 C7           3.7040    -0.5740    -0.1050 c          1 GRQ       0.571100
      8 C8           2.0150     1.8530     0.5980 c3         1 GRQ      -0.072900
      9 C9          -2.7740    -1.6570     0.6180 c3         1 GRQ      -0.057400
     10 O            4.3530    -1.5710    -0.3580 o          1 GRQ      -0.525100
     11 C           -4.5440    -0.1480    -0.4180 c3         1 GRQ      -0.057400
     12 H1          -2.6310     1.6850    -0.3230 ha         1 GRQ       0.118000
     13 H2          -0.6900     1.5900     1.1850 hc         1 GRQ       0.046700
     14 H3          -0.6860    -0.1600     1.1990 hc         1 GRQ       0.046700
     15 H4          -0.1020    -0.1630    -1.2530 hc         1 GRQ       0.054700
     16 H5          -0.0440     1.5930    -1.2220 hc         1 GRQ       0.054700
     17 H6           1.8660    -1.2330    -1.0300 ha         1 GRQ       0.144000
     18 H7           4.1730     0.2640     0.4330 h4         1 GRQ      -0.018800
     19 H8           1.6390     1.8030     1.6220 hc         1 GRQ       0.049367
     20 H9           3.0950     1.9550     0.6540 hc         1 GRQ       0.049367
     21 H10          1.6110     2.7680     0.1610 hc         1 GRQ       0.049367
     22 H11         -2.7540    -1.6740     1.7100 hc         1 GRQ       0.040200
     23 H12         -3.4990    -2.4060     0.3020 hc         1 GRQ       0.040200
     24 H13         -1.7930    -1.9860     0.2720 hc         1 GRQ       0.040200
     25 H14         -5.2690    -0.4110     0.3570 hc         1 GRQ       0.040200
     26 H15         -4.7580     0.8670    -0.7510 hc         1 GRQ       0.040200
     27 H16         -4.7280    -0.8280    -1.2530 hc         1 GRQ       0.040200
@<TRIPOS>BOND
     1     1     2 2   
     2     1     9 1   
     3     1    11 1   
     4     2     3 1   
     5     2    12 1   
     6     3     4 1   
     7     3    13 1   
     8     3    14 1   
     9     4     5 1   
    10     4    15 1   
    11     4    16 1   
    12     5     6 2   
    13     5     8 1   
    14     6     7 1   
    15     6    17 1   
    16     7    10 2   
    17     7    18 1   
    18     8    19 1   
    19     8    20 1   
    20     8    21 1   
    21     9    22 1   
    22     9    23 1   
    23     9    24 1   
    24    11    25 1   
    25    11    26 1   
    26    11    27 1   
@<TRIPOS>SUBSTRUCTURE
     1 GRQ         1 TEMP              0 ****  ****    0 ROOT
