@<TRIPOS>MOLECULE
GRQ
   27    26     1     0     0
SMALL
No Charge or Current Charge


@<TRIPOS>ATOM
      1 C1          -3.1320    -0.2740     0.1240 c2         1 GRQ      -0.103400
      2 C2          -2.3270     0.7930     0.2940 c2         1 GRQ      -0.235200
      3 C3          -0.8570     0.7890     0.6720 c3         1 GRQ      -0.034200
      4 C4           0.0620     0.6880    -0.5640 c3         1 GRQ      -0.055200
      5 C5           1.5380     0.6300    -0.1990 c2         1 GRQ      -0.032400
      6 C6           2.2390    -0.5290    -0.2250 ce         1 GRQ      -0.337200
      7 C7           3.6700    -0.6880     0.1550 c          1 GRQ       0.571100
      8 C8           2.1050     1.9760     0.2300 c3         1 GRQ      -0.072900
      9 C9          -2.7060    -1.7290     0.2490 c3         1 GRQ      -0.057400
     10 O            4.2460    -1.7680     0.1020 o          1 GRQ      -0.525100
     11 C           -4.6020    -0.1340    -0.2290 c3         1 GRQ      -0.057400
     12 H1          -2.7360     1.7980     0.1760 ha         1 GRQ       0.168000
     13 H2          -0.6200     1.7040     1.2280 hc         1 GRQ       0.046700
     14 H3          -0.6310    -0.0390     1.3540 hc         1 GRQ       0.046700
     15 H4          -0.2180    -0.2090    -1.1300 hc         1 GRQ       0.054700
     16 H5          -0.1360     1.5340    -1.2340 hc         1 GRQ       0.054700
     17 H6           1.7570    -1.4540    -0.5330 ha         1 GRQ       0.194000
     18 H7           4.2060     0.2230     0.4980 h4         1 GRQ      -0.018800
     19 H8           2.0750     2.0820     1.3210 hc         1 GRQ       0.049367
     20 H9           3.1440     2.1030    -0.0930 hc         1 GRQ       0.049367
     21 H10          1.5410     2.8140    -0.1980 hc         1 GRQ       0.049367
     22 H11         -3.2430    -2.2260     1.0660 hc         1 GRQ       0.040200
     23 H12         -2.9210    -2.2800    -0.6730 hc         1 GRQ       0.040200
     24 H13         -1.6350    -1.8450     0.4450 hc         1 GRQ       0.040200
     25 H14         -5.2370    -0.5940     0.5370 hc         1 GRQ       0.040200
     26 H15         -4.9020     0.9180    -0.3160 hc         1 GRQ       0.040200
     27 H16         -4.8260    -0.6190    -1.1870 hc         1 GRQ       0.040200
@<TRIPOS>BOND
     1     1     2 2   
     2     1     9 1   
     3     1    11 1   
     4     2     3 1   
     5     2    12 1   
     6     3     4 1   
     7     3    13 1   
     8     3    14 1   
     9     4     5 1   
    10     4    15 1   
    11     4    16 1   
    12     5     6 2   
    13     5     8 1   
    14     6     7 1   
    15     6    17 1   
    16     7    10 2   
    17     7    18 1   
    18     8    19 1   
    19     8    20 1   
    20     8    21 1   
    21     9    22 1   
    22     9    23 1   
    23     9    24 1   
    24    11    25 1   
    25    11    26 1   
    26    11    27 1   
@<TRIPOS>SUBSTRUCTURE
     1 GRQ         1 TEMP              0 ****  ****    0 ROOT
