@<TRIPOS>MOLECULE
GRR
   37    38     1     0     0
SMALL
No Charge or Current Charge


@<TRIPOS>ATOM
      1 CAA          5.4100    -2.1740    -1.0720 c3         1 GRR      -0.085100
      2 CAM          5.2560    -0.8500    -0.3020 c3         1 GRR      -0.013100
      3 CAQ          3.7960    -0.4950    -0.0560 ca         1 GRR      -0.158300
      4 CAJ          3.0820     0.2650    -1.0020 ca         1 GRR      -0.075000
      5 CAL          1.7320     0.5910    -0.7800 ca         1 GRR      -0.176500
      6 CAI          3.1460    -0.9310     1.1130 ca         1 GRR      -0.075000
      7 CAK          1.7970    -0.6050     1.3350 ca         1 GRR      -0.176500
      8 CAS          1.0840     0.1580     0.3970 ca         1 GRR       0.207100
      9 OAO         -0.2430     0.4340     0.6690 os         1 GRR      -0.333100
     10 CAT         -1.0670     1.2750    -0.1820 c3         1 GRR       0.023300
     11 CAP         -0.6760     2.7920    -0.1270 c          1 GRR       0.701000
     12 OAC         -1.0980     3.5180    -1.0170 o          1 GRR      -0.709000
     13 OAB          0.0690     3.1940     0.7580 o          1 GRR      -0.709000
     14 CAN         -2.5330     1.0730     0.2700 c3         1 GRR      -0.026100
     15 CAR         -3.0090    -0.3690     0.1190 ca         1 GRR      -0.048300
     16 CAG         -3.1530    -1.1970     1.2500 ca         1 GRR      -0.105500
     17 CAE         -3.5920    -2.5250     1.1060 ca         1 GRR      -0.121000
     18 CAD         -3.8900    -3.0330    -0.1700 ca         1 GRR      -0.134000
     19 CAF         -3.7480    -2.2130    -1.3010 ca         1 GRR      -0.121000
     20 CAH         -3.3090    -0.8850    -1.1570 ca         1 GRR      -0.105500
     21 HAA          4.9610    -3.0020    -0.5100 hc         1 GRR       0.025033
     22 HAAA         4.9190    -2.1110    -2.0500 hc         1 GRR       0.025033
     23 HAAB         6.4710    -2.4030    -1.2320 hc         1 GRR       0.025033
     24 HAM          5.7940    -0.9290     0.6520 hc         1 GRR       0.031700
     25 HAMA         5.7520    -0.0510    -0.8660 hc         1 GRR       0.031700
     26 HAJ          3.5730     0.6030    -1.9130 ha         1 GRR       0.090500
     27 HAL          1.2090     1.1760    -1.5300 ha         1 GRR       0.124000
     28 HAI          3.6840    -1.5240     1.8500 ha         1 GRR       0.090500
     29 HAK          1.2990    -0.9460     2.2390 ha         1 GRR       0.124000
     30 HAT         -0.9910     0.9460    -1.2270 h1         1 GRR       0.029700
     31 HAN         -2.6360     1.4090     1.3090 hc         1 GRR       0.064200
     32 HANA        -3.1800     1.7310    -0.3230 hc         1 GRR       0.064200
     33 HAG         -2.9200    -0.8140     2.2410 ha         1 GRR       0.115000
     34 HAE         -3.6990    -3.1600     1.9820 ha         1 GRR       0.096000
     35 HAD         -4.2290    -4.0600    -0.2810 ha         1 GRR       0.093000
     36 HAF         -3.9780    -2.6050    -2.2890 ha         1 GRR       0.096000
     37 HAH         -3.2020    -0.2560    -2.0380 ha         1 GRR       0.115000
@<TRIPOS>BOND
     1     1     2 1   
     2     1    21 1   
     3     1    22 1   
     4     1    23 1   
     5     2     3 1   
     6     2    24 1   
     7     2    25 1   
     8     3     4 ar  
     9     3     6 ar  
    10     4     5 ar  
    11     4    26 1   
    12     5     8 ar  
    13     5    27 1   
    14     6     7 ar  
    15     6    28 1   
    16     7     8 ar  
    17     7    29 1   
    18     8     9 1   
    19     9    10 1   
    20    10    11 1   
    21    10    14 1   
    22    10    30 1   
    23    11    12 1   
    24    11    13 1   
    25    14    15 1   
    26    14    31 1   
    27    14    32 1   
    28    15    16 ar  
    29    15    20 ar  
    30    16    17 ar  
    31    16    33 1   
    32    17    18 ar  
    33    17    34 1   
    34    18    19 ar  
    35    18    35 1   
    36    19    20 ar  
    37    19    36 1   
    38    20    37 1   
@<TRIPOS>SUBSTRUCTURE
     1 GRR         1 TEMP              0 ****  ****    0 ROOT
