@<TRIPOS>MOLECULE
GRR
   37    38     1     0     0
SMALL
abcg2


@<TRIPOS>ATOM
      1 CAA          5.3460    -2.0360    -1.1800 c3         1 GRR      -0.085100
      2 CAM          5.1920    -0.8820    -0.1910 c3         1 GRR      -0.013100
      3 CAQ          3.7510    -0.5060     0.0260 ca         1 GRR      -0.158300
      4 CAJ          3.0680     0.2890    -0.8880 ca         1 GRR      -0.075000
      5 CAL          1.7280     0.6160    -0.7270 ca         1 GRR      -0.176500
      6 CAI          3.0340    -0.9750     1.1250 ca         1 GRR      -0.075000
      7 CAK          1.6970    -0.6620     1.3050 ca         1 GRR      -0.176500
      8 CAS          1.0270     0.1420     0.3820 ca         1 GRR       0.207100
      9 OAO         -0.2730     0.3760     0.6300 os         1 GRR      -0.333100
     10 CAT         -1.0060     1.2030    -0.2490 c3         1 GRR       0.023300
     11 CAP         -0.5800     2.6900    -0.1770 c          1 GRR       0.701000
     12 OAC         -0.9830     3.3900    -1.1260 o          1 GRR      -0.709000
     13 OAB          0.0780     3.0480     0.8120 o          1 GRR      -0.709000
     14 CAN         -2.4750     1.0690     0.1490 c3         1 GRR      -0.026100
     15 CAR         -2.9690    -0.3490     0.0800 ca         1 GRR      -0.048300
     16 CAG         -3.0080    -1.1510     1.2170 ca         1 GRR      -0.105500
     17 CAE         -3.4430    -2.4690     1.1460 ca         1 GRR      -0.121000
     18 CAD         -3.8390    -3.0080    -0.0710 ca         1 GRR      -0.134000
     19 CAF         -3.8020    -2.2170    -1.2130 ca         1 GRR      -0.121000
     20 CAH         -3.3720    -0.9000    -1.1350 ca         1 GRR      -0.105500
     21 HAA          4.8280    -2.9280    -0.8250 hc         1 GRR       0.025033
     22 HAAA         4.9300    -1.7750    -2.1540 hc         1 GRR       0.025033
     23 HAAB         6.3960    -2.2940    -1.3230 hc         1 GRR       0.025033
     24 HAM          5.6460    -1.1580     0.7630 hc         1 GRR       0.031700
     25 HAMA         5.7490    -0.0150    -0.5580 hc         1 GRR       0.031700
     26 HAJ          3.5940     0.6750    -1.7550 ha         1 GRR       0.090500
     27 HAL          1.2550     1.2430    -1.4710 ha         1 GRR       0.124000
     28 HAI          3.5310    -1.5960     1.8620 ha         1 GRR       0.090500
     29 HAK          1.1610    -1.0380     2.1680 ha         1 GRR       0.124000
     30 HAT         -0.8960     0.8440    -1.2820 h1         1 GRR       0.029700
     31 HAN         -2.6120     1.4640     1.1590 hc         1 GRR       0.064200
     32 HANA        -3.0550     1.7030    -0.5230 hc         1 GRR       0.064200
     33 HAG         -2.7010    -0.7410     2.1710 ha         1 GRR       0.115000
     34 HAE         -3.4730    -3.0750     2.0420 ha         1 GRR       0.096000
     35 HAD         -4.1790    -4.0340    -0.1280 ha         1 GRR       0.093000
     36 HAF         -4.1130    -2.6260    -2.1660 ha         1 GRR       0.096000
     37 HAH         -3.3510    -0.2890    -2.0310 ha         1 GRR       0.115000
@<TRIPOS>BOND
     1     1     2 1   
     2     1    21 1   
     3     1    22 1   
     4     1    23 1   
     5     2     3 1   
     6     2    24 1   
     7     2    25 1   
     8     3     4 ar  
     9     3     6 ar  
    10     4     5 ar  
    11     4    26 1   
    12     5     8 ar  
    13     5    27 1   
    14     6     7 ar  
    15     6    28 1   
    16     7     8 ar  
    17     7    29 1   
    18     8     9 1   
    19     9    10 1   
    20    10    11 1   
    21    10    14 1   
    22    10    30 1   
    23    11    12 1   
    24    11    13 1   
    25    14    15 1   
    26    14    31 1   
    27    14    32 1   
    28    15    16 ar  
    29    15    20 ar  
    30    16    17 ar  
    31    16    33 1   
    32    17    18 ar  
    33    17    34 1   
    34    18    19 ar  
    35    18    35 1   
    36    19    20 ar  
    37    19    36 1   
    38    20    37 1   
@<TRIPOS>SUBSTRUCTURE
     1 GRR         1 TEMP              0 ****  ****    0 ROOT
