@<TRIPOS>MOLECULE
GRT
   83    84     1     0     0
SMALL
bcc


@<TRIPOS>ATOM
      1 C4           7.6250     0.1520    -1.5670 ca         1 GRT      -0.125000
      2 C5           8.7270     0.5960    -2.2840 ca         1 GRT      -0.125000
      3 C6           8.6030     1.6680    -3.1570 ca         1 GRT      -0.120000
      4 C8           5.0320     1.2600     0.3410 c3         1 GRT       0.092500
      5 C15          1.4600     0.9670     1.5830 c3         1 GRT       0.039700
      6 C28         -0.6050    -1.7470    -0.0550 c3         1 GRT       0.015000
      7 C39         -3.1080     1.4350    -1.1420 ca         1 GRT      -0.121500
      8 C40         -2.7280     2.6680    -0.6270 ca         1 GRT      -0.109000
      9 C41         -3.6340     3.4760     0.0480 ca         1 GRT      -0.089300
     10 C44         -3.2380     4.8340     0.5640 c3         1 GRT       0.196100
     11 N45         -4.0340     5.8780    -0.0660 n8         1 GRT      -0.884800
     12 C42         -4.9380     3.0100     0.2060 ca         1 GRT      -0.109000
     13 C43         -5.3120     1.7720    -0.2900 ca         1 GRT      -0.121500
     14 C38         -4.4070     0.9650    -0.9790 ca         1 GRT      -0.083300
     15 C37         -4.8360    -0.3780    -1.4990 c3         1 GRT      -0.044100
     16 C36         -4.3580    -1.5470    -0.6240 c3         1 GRT       0.115700
     17 C46         -5.0470    -2.8490    -1.0390 c3         1 GRT      -0.067400
     18 C47         -4.6340    -4.0020    -0.1380 c3         1 GRT      -0.184600
     19 S48         -5.4700    -5.5090    -0.6210 s6         1 GRT       0.999000
     20 O49         -6.9080    -5.3310    -0.4140 o          1 GRT      -0.588300
     21 O50         -5.0180    -5.8830    -1.9630 o          1 GRT      -0.588300
     22 C51         -4.8730    -6.7200     0.5360 c3         1 GRT      -0.224300
     23 N35         -2.9210    -1.6910    -0.7020 ns         1 GRT      -0.570900
     24 C33         -2.0630    -1.4750     0.3090 c          1 GRT       0.648100
     25 O34         -2.3890    -1.1400     1.4340 o          1 GRT      -0.595100
     26 C25          0.6250     0.2730     0.5090 c          1 GRT       0.656100
     27 O26          0.3100     0.8530    -0.5170 o          1 GRT      -0.611100
     28 C16          0.7210     2.1840     2.1380 c3         1 GRT      -0.080400
     29 C19         -0.6400     0.8460     3.8170 c3         1 GRT      -0.085600
     30 C18         -1.2500     3.2080     3.2540 c3         1 GRT      -0.085600
     31 N14          2.7180     1.3770     0.9990 ns         1 GRT      -0.571900
     32 C12          3.8790     0.7310     1.1860 c          1 GRT       0.684100
     33 O13          4.0240    -0.2280     1.9230 o          1 GRT      -0.569100
     34 N9           6.2200     1.2500     1.1950 n2         1 GRT      -0.407200
     35 N10          7.0690     2.0850     0.9370 n1         1 GRT       0.231000
     36 N11          7.9070     2.8200     0.7950 n1         1 GRT      -0.062000
     37 C3           6.3860     0.7710    -1.7110 ca         1 GRT      -0.104300
     38 C1           7.3700     2.2910    -3.3110 ca         1 GRT      -0.125000
     39 C2           6.2710     1.8450    -2.5920 ca         1 GRT      -0.125000
     40 H1           7.7260    -0.6840    -0.8840 ha         1 GRT       0.134000
     41 H2           9.6840     0.1040    -2.1600 ha         1 GRT       0.134000
     42 H3           9.4610     2.0150    -3.7180 ha         1 GRT       0.134000
     43 H4           5.3550    -0.6850    -0.5260 hc         1 GRT       0.069700
     44 H5           4.2940     0.3630    -1.4640 hc         1 GRT       0.069700
     45 H6           4.8160     2.2750    -0.0070 h1         1 GRT       0.049700
     46 H7           1.6890     0.2770     2.3960 h1         1 GRT       0.091700
     47 H8          -1.3190     1.5480     1.9150 hc         1 GRT       0.069700
     48 H9          -0.4130    -2.8120     0.0910 h1         1 GRT       0.072200
     49 H10         -0.4130    -1.5300    -1.1050 h1         1 GRT       0.072200
     50 H12         -1.7050     3.0020    -0.7580 ha         1 GRT       0.137500
     51 H13         -3.4200     4.8810     1.6410 h1         1 GRT       0.032700
     52 H14         -2.1540     4.9590     0.4320 h1         1 GRT       0.032700
     53 H15         -3.7740     6.7770     0.3220 hn         1 GRT       0.339300
     54 H16         -3.8070     5.9250    -1.0520 hn         1 GRT       0.339300
     55 H18         -5.6670     3.6230     0.7220 ha         1 GRT       0.137500
     56 H19         -6.3320     1.4290    -0.1500 ha         1 GRT       0.130000
     57 H20         -5.9270    -0.4160    -1.5500 hc         1 GRT       0.053200
     58 H21         -4.4740    -0.5320    -2.5200 hc         1 GRT       0.053200
     59 H22         -4.6040    -1.3320     0.4170 h1         1 GRT       0.090700
     60 H23         -6.1270    -2.7010    -0.9820 hc         1 GRT       0.067200
     61 H24         -4.8040    -3.0750    -2.0810 hc         1 GRT       0.067200
     62 H25         -3.5630    -4.2010    -0.1960 h1         1 GRT       0.097200
     63 H26         -4.8950    -3.8120     0.9050 h1         1 GRT       0.097200
     64 H27         -5.1540    -6.4310     1.5450 h1         1 GRT       0.104700
     65 H28         -5.3390    -7.6700     0.2760 h1         1 GRT       0.104700
     66 H29         -3.7920    -6.8030     0.4490 h1         1 GRT       0.104700
     67 H30         -2.5390    -1.9240    -1.6070 hn         1 GRT       0.311500
     68 H32          1.3550     2.6290     2.9130 hc         1 GRT       0.051700
     69 H33          0.6260     2.9300     1.3430 hc         1 GRT       0.051700
     70 H34          0.0720     1.1110     4.6030 hc         1 GRT       0.033700
     71 H35         -1.6230     0.7500     4.2810 hc         1 GRT       0.033700
     72 H36         -0.3750    -0.1410     3.4390 hc         1 GRT       0.033700
     73 H37         -1.2520     3.9860     2.4900 hc         1 GRT       0.033700
     74 H38         -2.2800     3.0730     3.5870 hc         1 GRT       0.033700
     75 H39         -0.6680     3.5750     4.1030 hc         1 GRT       0.033700
     76 H40          2.6900     2.1530     0.3550 hn         1 GRT       0.322500
     77 H42          7.2670     3.1240    -3.9940 ha         1 GRT       0.134000
     78 H43          5.3120     2.3360    -2.7150 ha         1 GRT       0.134000
     79 C7           5.2160     0.3390    -0.8770 c3         1 GRT      -0.040100
     80 C17         -0.6660     1.9040     2.7190 c3         1 GRT      -0.063700
     81 N27          0.3000    -1.0030     0.7700 ns         1 GRT      -0.543900
     82 H11         -2.3760     0.8440    -1.6770 ha         1 GRT       0.130000
     83 H31          0.5500    -1.3940     1.6630 hn         1 GRT       0.331500
@<TRIPOS>BOND
     1     1     2 ar  
     2     1    37 ar  
     3     1    40 1   
     4     2     3 ar  
     5     2    41 1   
     6     3    38 ar  
     7     3    42 1   
     8     4    32 1   
     9     4    34 1   
    10     4    45 1   
    11     4    79 1   
    12     5    26 1   
    13     5    28 1   
    14     5    31 1   
    15     5    46 1   
    16     6    24 1   
    17     6    48 1   
    18     6    49 1   
    19     6    81 1   
    20     7     8 ar  
    21     7    14 ar  
    22     7    82 1   
    23     8     9 ar  
    24     8    50 1   
    25     9    10 1   
    26     9    12 ar  
    27    10    11 1   
    28    10    51 1   
    29    10    52 1   
    30    11    53 1   
    31    11    54 1   
    32    12    13 ar  
    33    12    55 1   
    34    13    14 ar  
    35    13    56 1   
    36    14    15 1   
    37    15    16 1   
    38    15    57 1   
    39    15    58 1   
    40    16    17 1   
    41    16    23 1   
    42    16    59 1   
    43    17    18 1   
    44    17    60 1   
    45    17    61 1   
    46    18    19 1   
    47    18    62 1   
    48    18    63 1   
    49    19    20 2   
    50    19    21 2   
    51    19    22 1   
    52    22    64 1   
    53    22    65 1   
    54    22    66 1   
    55    23    24 1   
    56    23    67 1   
    57    24    25 2   
    58    26    27 2   
    59    26    81 1   
    60    28    68 1   
    61    28    69 1   
    62    28    80 1   
    63    29    70 1   
    64    29    71 1   
    65    29    72 1   
    66    29    80 1   
    67    30    73 1   
    68    30    74 1   
    69    30    75 1   
    70    30    80 1   
    71    31    32 1   
    72    31    76 1   
    73    32    33 2   
    74    34    35 1   
    75    35    36 3   
    76    37    39 ar  
    77    37    79 1   
    78    38    39 ar  
    79    38    77 1   
    80    39    78 1   
    81    43    79 1   
    82    44    79 1   
    83    47    80 1   
    84    81    83 1   
@<TRIPOS>SUBSTRUCTURE
     1 GRT         1 TEMP              0 ****  ****    0 ROOT
