@<TRIPOS>MOLECULE
GRT
   83    84     1     0     0
SMALL
No Charge or Current Charge


@<TRIPOS>ATOM
      1 C4           8.9690     0.6920    -0.0710 ca         1 GRT      -0.107000
      2 C5          10.0810     0.7320    -0.9290 ca         1 GRT      -0.107000
      3 C6           9.9390     0.3800    -2.2820 ca         1 GRT      -0.102000
      4 C8           5.5010     1.4330     0.1090 c3         1 GRT       0.092500
      5 C15          1.6540     1.1090     0.7000 c3         1 GRT       0.039700
      6 C28         -1.4720    -0.6030    -0.8880 c3         1 GRT       0.015000
      7 C39         -4.9500     1.6780    -0.9750 ca         1 GRT      -0.103500
      8 C40         -4.4580     2.9020    -0.4870 ca         1 GRT      -0.091000
      9 C41         -4.5980     3.2310     0.8760 ca         1 GRT      -0.089300
     10 C44         -4.0680     4.5570     1.4050 c3         1 GRT       0.196100
     11 N45         -5.0670     5.6320     1.2680 n8         1 GRT      -0.995200
     12 C42         -5.2290     2.3190     1.7430 ca         1 GRT      -0.091000
     13 C43         -5.7170     1.0940     1.2550 ca         1 GRT      -0.103500
     14 C38         -5.5820     0.7670    -0.1070 ca         1 GRT      -0.083300
     15 C37         -6.0970    -0.5710    -0.6320 c3         1 GRT      -0.044100
     16 C36         -5.1270    -1.7440    -0.3500 c3         1 GRT       0.115700
     17 C46         -5.6410    -3.0880    -0.9180 c3         1 GRT      -0.067400
     18 C47         -4.7150    -4.2910    -0.5890 c3         1 GRT      -0.295400
     19 S48         -5.3380    -5.8700    -1.2130 s6         1 GRT       1.079000
     20 O49         -6.5840    -6.1830    -0.5030 o          1 GRT      -0.517500
     21 O50         -5.3360    -5.8140    -2.6800 o          1 GRT      -0.517500
     22 C51         -4.1050    -7.0670    -0.7100 c3         1 GRT      -0.335100
     23 N35         -3.7870    -1.4370    -0.8640 ns         1 GRT      -0.503900
     24 C33         -2.7250    -1.0220    -0.0900 c          1 GRT       0.581100
     25 O34         -2.7750    -0.9890     1.1340 o          1 GRT      -0.595100
     26 C25          0.7050     0.6020    -0.4270 c          1 GRT       0.589100
     27 O26          0.9350     0.7660    -1.6190 o          1 GRT      -0.611100
     28 C16          1.1930     2.4660     1.3100 c3         1 GRT      -0.080400
     29 C19         -0.2330     1.4950     3.2370 c3         1 GRT      -0.085600
     30 C18         -0.5330     3.9100     2.5090 c3         1 GRT      -0.085600
     31 N14          3.0250     1.2530     0.1590 ns         1 GRT      -0.504900
     32 C12          4.1830     1.2410     0.9130 c          1 GRT       0.617100
     33 O13          4.1560     1.0730     2.1270 o          1 GRT      -0.569100
     34 N9           6.1340     2.7350     0.4230 n2         1 GRT      -0.407200
     35 N10          6.6490     3.3500    -0.5260 n1         1 GRT       0.231000
     36 N11          7.2330     3.8270    -1.3780 n1         1 GRT      -0.062000
     37 C3           7.7070     0.2990    -0.5600 ca         1 GRT      -0.104300
     38 C1           8.6840    -0.0130    -2.7750 ca         1 GRT      -0.107000
     39 C2           7.5710    -0.0540    -1.9170 ca         1 GRT      -0.107000
     40 H1           9.0880     0.9720     0.9740 ha         1 GRT       0.116000
     41 H2          11.0520     1.0390    -0.5460 ha         1 GRT       0.116000
     42 H3          10.8000     0.4120    -2.9460 ha         1 GRT       0.116000
     43 H4           6.8080     0.2880     1.4160 hc         1 GRT       0.069700
     44 H5           5.9620    -0.6820     0.2300 hc         1 GRT       0.069700
     45 H6           5.2240     1.3980    -0.9540 h1         1 GRT       0.049700
     46 H7           1.6760     0.3390     1.4820 h1         1 GRT       0.091700
     47 H8          -0.9610     2.1850     1.3300 hc         1 GRT       0.069700
     48 H9          -1.0990    -1.4770    -1.4360 h1         1 GRT       0.072200
     49 H10         -1.7680     0.1700    -1.6100 h1         1 GRT       0.072200
     50 H12         -3.9700     3.5950    -1.1680 ha         1 GRT       0.119500
     51 H13         -3.8030     4.4570     2.4660 h1         1 GRT       0.032700
     52 H14         -3.1620     4.8420     0.8510 h1         1 GRT       0.032700
     53 H15         -4.6380     6.5230     1.5470 hn         1 GRT       0.394500
     54 H16         -5.2750     5.7610     0.2710 hn         1 GRT       0.394500
     55 H18         -5.3410     2.5600     2.7980 ha         1 GRT       0.119500
     56 H19         -6.1970     0.3970     1.9380 ha         1 GRT       0.112000
     57 H20         -7.0700    -0.7960    -0.1790 hc         1 GRT       0.053200
     58 H21         -6.2760    -0.5060    -1.7120 hc         1 GRT       0.053200
     59 H22         -5.0640    -1.8580     0.7410 h1         1 GRT       0.090700
     60 H23         -6.6430    -3.2800    -0.5110 hc         1 GRT       0.067200
     61 H24         -5.7550    -2.9990    -2.0060 hc         1 GRT       0.067200
     62 H25         -3.7250    -4.1560    -1.0370 h1         1 GRT       0.097200
     63 H26         -4.6080    -4.4100     0.4960 h1         1 GRT       0.097200
     64 H27         -4.0420    -7.0420     0.3830 h1         1 GRT       0.104700
     65 H28         -4.4340    -8.0490    -1.0640 h1         1 GRT       0.104700
     66 H29         -3.1530    -6.7790    -1.1690 h1         1 GRT       0.104700
     67 H30         -3.6480    -1.4390    -1.8670 hn         1 GRT       0.311500
     68 H32          1.9570     2.8100     2.0170 hc         1 GRT       0.051700
     69 H33          1.1680     3.2110     0.5050 hc         1 GRT       0.051700
     70 H34          0.5470     1.7320     3.9710 hc         1 GRT       0.033700
     71 H35         -1.2050     1.5530     3.7420 hc         1 GRT       0.033700
     72 H36         -0.0930     0.4580     2.9130 hc         1 GRT       0.033700
     73 H37         -0.5800     4.5960     1.6550 hc         1 GRT       0.033700
     74 H38         -1.5080     3.9260     3.0100 hc         1 GRT       0.033700
     75 H39          0.2180     4.2880     3.2130 hc         1 GRT       0.033700
     76 H40          3.1280     1.3830    -0.8420 hn         1 GRT       0.322500
     77 H42          8.5730    -0.2860    -3.8230 ha         1 GRT       0.116000
     78 H43          6.6030    -0.3590    -2.3090 ha         1 GRT       0.116000
     79 C7           6.4930     0.2680     0.3650 c3         1 GRT      -0.040100
     80 C17         -0.1800     2.4790     2.0430 c3         1 GRT      -0.063700
     81 N27         -0.4150    -0.0780     0.0000 ns         1 GRT      -0.476900
     82 H11         -4.8330     1.4380    -2.0290 ha         1 GRT       0.112000
     83 H31         -0.5440    -0.1800     1.0020 hn         1 GRT       0.331500
@<TRIPOS>BOND
     1     1     2 ar  
     2     1    37 ar  
     3     1    40 1   
     4     2     3 ar  
     5     2    41 1   
     6     3    38 ar  
     7     3    42 1   
     8     4    32 1   
     9     4    34 1   
    10     4    45 1   
    11     4    79 1   
    12     5    26 1   
    13     5    28 1   
    14     5    31 1   
    15     5    46 1   
    16     6    24 1   
    17     6    48 1   
    18     6    49 1   
    19     6    81 1   
    20     7     8 ar  
    21     7    14 ar  
    22     7    82 1   
    23     8     9 ar  
    24     8    50 1   
    25     9    10 1   
    26     9    12 ar  
    27    10    11 1   
    28    10    51 1   
    29    10    52 1   
    30    11    53 1   
    31    11    54 1   
    32    12    13 ar  
    33    12    55 1   
    34    13    14 ar  
    35    13    56 1   
    36    14    15 1   
    37    15    16 1   
    38    15    57 1   
    39    15    58 1   
    40    16    17 1   
    41    16    23 1   
    42    16    59 1   
    43    17    18 1   
    44    17    60 1   
    45    17    61 1   
    46    18    19 1   
    47    18    62 1   
    48    18    63 1   
    49    19    20 2   
    50    19    21 2   
    51    19    22 1   
    52    22    64 1   
    53    22    65 1   
    54    22    66 1   
    55    23    24 1   
    56    23    67 1   
    57    24    25 2   
    58    26    27 2   
    59    26    81 1   
    60    28    68 1   
    61    28    69 1   
    62    28    80 1   
    63    29    70 1   
    64    29    71 1   
    65    29    72 1   
    66    29    80 1   
    67    30    73 1   
    68    30    74 1   
    69    30    75 1   
    70    30    80 1   
    71    31    32 1   
    72    31    76 1   
    73    32    33 2   
    74    34    35 1   
    75    35    36 3   
    76    37    39 ar  
    77    37    79 1   
    78    38    39 ar  
    79    38    77 1   
    80    39    78 1   
    81    43    79 1   
    82    44    79 1   
    83    47    80 1   
    84    81    83 1   
@<TRIPOS>SUBSTRUCTURE
     1 GRT         1 TEMP              0 ****  ****    0 ROOT
