@<TRIPOS>MOLECULE
GRV
   34    35     1     0     0
SMALL
abcg2


@<TRIPOS>ATOM
      1 N1          15.5410    22.2250    22.0800 na         1 GRV       0.161100
      2 N3          16.7000    20.1920    24.9110 ns         1 GRV      -0.497900
      3 C4          16.5630    22.8240    21.3940 cc         1 GRV      -0.083000
      4 C5          16.2800    23.5190    20.2550 cd         1 GRV      -0.158000
      5 C6          14.9510    23.6230    19.7840 cd         1 GRV      -0.086000
      6 C7          13.9300    23.0170    20.4680 cc         1 GRV      -0.092000
      7 C8          14.2220    22.3010    21.6400 cc         1 GRV      -0.055000
      8 C10         17.7600    19.8940    25.8620 c3         1 GRV       0.105000
      9 C13         17.2170    21.8330    27.4050 c3         1 GRV      -0.087600
     10 C2          14.1960    21.1090    23.4400 cd         1 GRV       0.120400
     11 C3          15.5350    21.4500    23.2410 cc         1 GRV      -0.272300
     12 N2          13.4100    21.6310    22.4660 nd         1 GRV      -0.308600
     13 C9          16.7520    21.2100    24.0230 c          1 GRV       0.652300
     14 O1          17.7650    21.9100    23.8730 o          1 GRV      -0.638100
     15 C11         17.4370    20.3240    27.3010 c3         1 GRV      -0.085700
     16 C12         16.2500    19.5470    27.8730 c3         1 GRV      -0.087600
     17 H1          15.8800    19.6110    24.9310 hn         1 GRV       0.316500
     18 H2          17.5460    22.7100    21.8160 h4         1 GRV       0.181000
     19 H3          17.0920    23.9920    19.7210 ha         1 GRV       0.135000
     20 H4          14.7450    24.1800    18.8800 ha         1 GRV       0.126000
     21 H5          12.9020    23.0700    20.1380 ha         1 GRV       0.145000
     22 H6          17.9470    18.8180    25.8360 h1         1 GRV       0.058700
     23 H7          18.6580    20.4020    25.5160 h1         1 GRV       0.058700
     24 H8          17.0400    22.1260    28.4420 hc         1 GRV       0.035533
     25 H9          18.0830    22.3860    27.0370 hc         1 GRV       0.035533
     26 H10         16.3470    22.1390    26.8190 hc         1 GRV       0.035533
     27 H11         12.5080    20.4290    24.5220 hc         1 GRV       0.053700
     28 H12         13.8130    19.2470    24.4460 hc         1 GRV       0.053700
     29 H13         13.9530    20.6390    25.5230 hc         1 GRV       0.053700
     30 H14         18.3260    20.0650    27.8870 hc         1 GRV       0.051700
     31 H15         16.0900    19.8050    28.9220 hc         1 GRV       0.035533
     32 H16         15.3300    19.7800    27.3320 hc         1 GRV       0.035533
     33 H17         16.4160    18.4680    27.8110 hc         1 GRV       0.035533
     34 C1          13.5900    20.3130    24.5470 c3         1 GRV      -0.033900
@<TRIPOS>BOND
     1     1     3 1   
     2     1     7 1   
     3     1    11 1   
     4     2     8 1   
     5     2    13 1   
     6     2    17 1   
     7     3     4 2   
     8     3    18 1   
     9     4     5 1   
    10     4    19 1   
    11     5     6 2   
    12     5    20 1   
    13     6     7 1   
    14     6    21 1   
    15     7    12 2   
    16     8    15 1   
    17     8    22 1   
    18     8    23 1   
    19     9    15 1   
    20     9    24 1   
    21     9    25 1   
    22     9    26 1   
    23    10    11 2   
    24    10    12 1   
    25    10    34 1   
    26    11    13 1   
    27    13    14 2   
    28    15    16 1   
    29    15    30 1   
    30    16    31 1   
    31    16    32 1   
    32    16    33 1   
    33    27    34 1   
    34    28    34 1   
    35    29    34 1   
@<TRIPOS>SUBSTRUCTURE
     1 GRV         1 TEMP              0 ****  ****    0 ROOT
