@<TRIPOS>MOLECULE
GRV
   34    35     1     0     0
SMALL
No Charge or Current Charge


@<TRIPOS>ATOM
      1 N1          15.4740    22.2250    22.0930 na         1 GRV       0.161100
      2 N3          16.5840    20.0970    24.9820 ns         1 GRV      -0.497900
      3 C4          16.5080    23.0200    21.5730 cc         1 GRV      -0.083000
      4 C5          16.1430    23.8240    20.4920 cd         1 GRV      -0.158000
      5 C6          14.8110    23.8490    19.9350 cd         1 GRV      -0.086000
      6 C7          13.8480    23.0430    20.4910 cc         1 GRV      -0.092000
      7 C8          14.2070    22.2200    21.5920 cc         1 GRV      -0.055000
      8 C10         17.5790    19.6720    25.9750 c3         1 GRV       0.105000
      9 C13         17.6610    21.9000    27.2700 c3         1 GRV      -0.087600
     10 C2          14.3150    20.8350    23.2480 cd         1 GRV       0.120400
     11 C3          15.6080    21.3550    23.1540 cc         1 GRV      -0.272300
     12 N2          13.4730    21.3770    22.2820 nd         1 GRV      -0.308600
     13 C9          16.7910    21.0360    24.0000 c          1 GRV       0.652300
     14 O1          17.8880    21.5540    23.8540 o          1 GRV      -0.638100
     15 C11         17.4090    20.3760    27.3460 c3         1 GRV      -0.085700
     16 C12         16.0440    20.0620    28.0030 c3         1 GRV      -0.087600
     17 H1          15.6580    19.7020    25.0420 hn         1 GRV       0.316500
     18 H2          17.4940    22.9770    22.0110 h4         1 GRV       0.181000
     19 H3          16.9000    24.4630    20.0460 ha         1 GRV       0.135000
     20 H4          14.5740    24.4910    19.0930 ha         1 GRV       0.126000
     21 H5          12.8310    23.0240    20.1090 ha         1 GRV       0.145000
     22 H6          17.4810    18.5870    26.1140 h1         1 GRV       0.058700
     23 H7          18.5900    19.8580    25.5900 h1         1 GRV       0.058700
     24 H8          17.6440    22.3440    28.2730 hc         1 GRV       0.035533
     25 H9          18.6410    22.1090    26.8250 hc         1 GRV       0.035533
     26 H10         16.8940    22.3980    26.6650 hc         1 GRV       0.035533
     27 H11         12.6690    19.6460    23.9990 hc         1 GRV       0.053700
     28 H12         14.2380    18.8530    24.1180 hc         1 GRV       0.053700
     29 H13         13.8020    20.1670    25.2430 hc         1 GRV       0.053700
     30 H14         18.1820    19.9600    28.0050 hc         1 GRV       0.051700
     31 H15         16.0000    20.4760    29.0170 hc         1 GRV       0.035533
     32 H16         15.2170    20.4930    27.4240 hc         1 GRV       0.035533
     33 H17         15.8870    18.9780    28.0730 hc         1 GRV       0.035533
     34 C1          13.7320    19.8210    24.2050 c3         1 GRV      -0.033900
@<TRIPOS>BOND
     1     1     3 1   
     2     1     7 1   
     3     1    11 1   
     4     2     8 1   
     5     2    13 1   
     6     2    17 1   
     7     3     4 2   
     8     3    18 1   
     9     4     5 1   
    10     4    19 1   
    11     5     6 2   
    12     5    20 1   
    13     6     7 1   
    14     6    21 1   
    15     7    12 2   
    16     8    15 1   
    17     8    22 1   
    18     8    23 1   
    19     9    15 1   
    20     9    24 1   
    21     9    25 1   
    22     9    26 1   
    23    10    11 2   
    24    10    12 1   
    25    10    34 1   
    26    11    13 1   
    27    13    14 2   
    28    15    16 1   
    29    15    30 1   
    30    16    31 1   
    31    16    32 1   
    32    16    33 1   
    33    27    34 1   
    34    28    34 1   
    35    29    34 1   
@<TRIPOS>SUBSTRUCTURE
     1 GRV         1 TEMP              0 ****  ****    0 ROOT
