@<TRIPOS>MOLECULE
GRW
   90    91     1     0     0
SMALL
No Charge or Current Charge


@<TRIPOS>ATOM
      1 C6           5.8200    -0.2160    -0.2320 c3         1 GRW       0.096500
      2 C7           4.4760    -0.1550    -1.0120 c          1 GRW       0.574100
      3 C10          0.9750     0.0490     0.3840 c          1 GRW       0.598100
      4 C13         -2.6310     1.0590     0.0110 c          1 GRW       0.589100
      5 C15         -5.1110     0.5890    -0.0070 c3         1 GRW       0.116700
      6 C17         -4.8690    -1.9530     0.1760 ca         1 GRW      -0.085300
      7 C20         -3.2020    -4.1960    -0.2700 ca         1 GRW      -0.089300
      8 C21         -2.3150    -5.4110    -0.5060 c3         1 GRW       0.194100
      9 C24         -4.6370    -2.4190    -1.1320 ca         1 GRW      -0.110000
     10 C28         -5.6420     5.9490    -0.7220 c3         1 GRW      -0.334100
     11 C23         -3.8090    -3.5330    -1.3540 ca         1 GRW      -0.088000
     12 N22         -3.0550    -6.6700    -0.3030 n8         1 GRW      -0.995200
     13 C19         -3.4250    -3.7230     1.0380 ca         1 GRW      -0.088000
     14 C18         -4.2550    -2.6100     1.2600 ca         1 GRW      -0.110000
     15 C16         -5.7710    -0.7450     0.4130 c3         1 GRW      -0.048100
     16 C25         -6.0160     1.8130     0.2690 c3         1 GRW      -0.064400
     17 S27         -6.5120     4.5710     0.0190 s6         1 GRW       1.080000
     18 O30         -7.7650     4.3800    -0.7210 o          1 GRW      -0.519500
     19 O29         -6.5560     4.7960     1.4690 o          1 GRW      -0.519500
     20 N14         -3.8070     0.7300     0.6510 ns         1 GRW      -0.490900
     21 O31         -2.5970     1.3530    -1.1770 o          1 GRW      -0.611100
     22 C12         -1.3510     0.9760     0.8840 c3         1 GRW      -0.018300
     23 C32         -1.0920     2.2990     1.6690 c3         1 GRW       0.175300
     24 C14         -2.2470     2.7350     2.5960 c3         1 GRW      -0.092100
     25 O33          0.0780     2.1560     2.4800 oh         1 GRW      -0.649000
     26 N11         -0.2140     0.6220    -0.0080 ns         1 GRW      -0.495900
     27 O39          1.2380    -0.1050     1.5700 o          1 GRW      -0.605100
     28 C9           1.9540    -0.3330    -0.7630 c3         1 GRW       0.033700
     29 C40          1.6400    -1.7270    -1.3820 c3         1 GRW      -0.090400
     30 C41          0.2430    -1.9040    -2.0440 c3         1 GRW      -0.059700
     31 C43          0.0020    -0.9190    -3.2130 c3         1 GRW      -0.088100
     32 C42          0.0470    -3.3610    -2.5190 c3         1 GRW      -0.088100
     33 N8           3.3400    -0.3280    -0.2440 ns         1 GRW      -0.501900
     34 O44          4.4090     0.0320    -2.2220 o          1 GRW      -0.591100
     35 N51          6.4870     1.1060    -0.1880 n2         1 GRW      -0.417200
     36 N52          6.0490     1.9210     0.6410 n1         1 GRW       0.241000
     37 N53          5.5190     2.6420     1.3440 n1         1 GRW      -0.055000
     38 C54          6.7710    -1.2770    -0.8370 c3         1 GRW      -0.005100
     39 C55          8.0060    -1.5300     0.0250 ca         1 GRW      -0.080300
     40 C56          9.2510    -0.9750    -0.3300 ca         1 GRW      -0.096500
     41 C57         10.3850    -1.2080     0.4670 ca         1 GRW      -0.111000
     42 C58         10.2810    -1.9990     1.6240 ca         1 GRW      -0.106000
     43 C59          9.0420    -2.5560     1.9830 ca         1 GRW      -0.111000
     44 C60          7.9080    -2.3230     1.1860 ca         1 GRW      -0.096500
     45 H1           5.5810    -0.5440     0.7890 h1         1 GRW       0.061700
     46 H2          -4.9490     0.5350    -1.0930 h1         1 GRW       0.085700
     47 H3          -1.9240    -5.3970    -1.5330 h1         1 GRW       0.034200
     48 H4          -1.4600    -5.3850     0.1850 h1         1 GRW       0.034200
     49 H5          -5.1010    -1.9190    -1.9790 ha         1 GRW       0.108500
     50 H6          -4.4810     3.3830     0.1560 h1         1 GRW       0.100200
     51 H7          -5.3320     3.0820    -1.3840 h1         1 GRW       0.100200
     52 H8          -5.5290     5.7360    -1.7910 h1         1 GRW       0.104700
     53 H9          -6.2470     6.8470    -0.5600 h1         1 GRW       0.104700
     54 H10         -4.6680     6.0330    -0.2290 h1         1 GRW       0.104700
     55 H11         -3.6450    -3.8870    -2.3690 ha         1 GRW       0.123000
     56 H12         -2.4000    -7.4570    -0.3780 hn         1 GRW       0.396500
     57 H13         -3.3740    -6.7090     0.6710 hn         1 GRW       0.396500
     58 H15         -2.9590    -4.2220     1.8850 ha         1 GRW       0.123000
     59 H16         -4.4200    -2.2610     2.2770 ha         1 GRW       0.108500
     60 H17         -6.0570    -0.6860     1.4710 hc         1 GRW       0.057200
     61 H18         -6.7070    -0.8700    -0.1450 hc         1 GRW       0.057200
     62 H19         -7.0020     1.6290    -0.1750 hc         1 GRW       0.066700
     63 H20         -6.1700     1.9070     1.3520 hc         1 GRW       0.066700
     64 H21         -3.7410     0.4760     1.6290 hn         1 GRW       0.316500
     65 H22         -1.5040     0.1570     1.6000 h1         1 GRW       0.100700
     66 H23         -0.9300     3.1010     0.9350 h1         1 GRW       0.041700
     67 H24         -2.5110     1.9360     3.2990 hc         1 GRW       0.048367
     68 H25         -1.9580     3.6190     3.1780 hc         1 GRW       0.048367
     69 H26         -3.1400     3.0040     2.0210 hc         1 GRW       0.048367
     70 H27          0.5210     1.3170     2.1860 ho         1 GRW       0.452000
     71 H28         -0.3540     0.7400    -1.0070 hn         1 GRW       0.332500
     72 H29          1.8740     0.4410    -1.5360 h1         1 GRW       0.088700
     73 H30          2.4060    -1.9580    -2.1330 hc         1 GRW       0.055700
     74 H31          1.7510    -2.4830    -0.5930 hc         1 GRW       0.055700
     75 H32         -0.5280    -1.7210    -1.2850 hc         1 GRW       0.057700
     76 H33         -0.9850    -1.0880    -3.6620 hc         1 GRW       0.035033
     77 H34          0.0360     0.1230    -2.8780 hc         1 GRW       0.035033
     78 H35          0.7590    -1.0520    -3.9960 hc         1 GRW       0.035033
     79 H36          0.7730    -3.6190    -3.3000 hc         1 GRW       0.035033
     80 H37          0.1780    -4.0610    -1.6850 hc         1 GRW       0.035033
     81 H38         -0.9600    -3.5040    -2.9270 hc         1 GRW       0.035033
     82 H39          3.4720    -0.4570     0.7550 hn         1 GRW       0.336500
     83 H41          6.2180    -2.2170    -0.9590 hc         1 GRW       0.058700
     84 H42          7.0640    -0.9680    -1.8480 hc         1 GRW       0.058700
     85 H43          9.3400    -0.3580    -1.2220 ha         1 GRW       0.111500
     86 H44         11.3440    -0.7760     0.1890 ha         1 GRW       0.113000
     87 H45         11.1590    -2.1800     2.2410 ha         1 GRW       0.112000
     88 H46          8.9610    -3.1690     2.8780 ha         1 GRW       0.113000
     89 H47          6.9530    -2.7590     1.4720 ha         1 GRW       0.111500
     90 C26         -5.4490     3.1450    -0.2960 c3         1 GRW      -0.294400
@<TRIPOS>BOND
     1     1     2 1   
     2     1    35 1   
     3     1    38 1   
     4     1    45 1   
     5     2    33 1   
     6     2    34 2   
     7     3    26 1   
     8     3    27 2   
     9     3    28 1   
    10     4    20 1   
    11     4    21 2   
    12     4    22 1   
    13     5    15 1   
    14     5    16 1   
    15     5    20 1   
    16     5    46 1   
    17     6     9 ar  
    18     6    14 ar  
    19     6    15 1   
    20     7     8 1   
    21     7    11 ar  
    22     7    13 ar  
    23     8    12 1   
    24     8    47 1   
    25     8    48 1   
    26     9    11 ar  
    27     9    49 1   
    28    10    17 1   
    29    10    52 1   
    30    10    53 1   
    31    10    54 1   
    32    11    55 1   
    33    12    56 1   
    34    12    57 1   
    35    13    14 ar  
    36    13    58 1   
    37    14    59 1   
    38    15    60 1   
    39    15    61 1   
    40    16    62 1   
    41    16    63 1   
    42    16    90 1   
    43    17    18 2   
    44    17    19 2   
    45    17    90 1   
    46    20    64 1   
    47    22    23 1   
    48    22    26 1   
    49    22    65 1   
    50    23    24 1   
    51    23    25 1   
    52    23    66 1   
    53    24    67 1   
    54    24    68 1   
    55    24    69 1   
    56    25    70 1   
    57    26    71 1   
    58    28    29 1   
    59    28    33 1   
    60    28    72 1   
    61    29    30 1   
    62    29    73 1   
    63    29    74 1   
    64    30    31 1   
    65    30    32 1   
    66    30    75 1   
    67    31    76 1   
    68    31    77 1   
    69    31    78 1   
    70    32    79 1   
    71    32    80 1   
    72    32    81 1   
    73    33    82 1   
    74    35    36 1   
    75    36    37 3   
    76    38    39 1   
    77    38    83 1   
    78    38    84 1   
    79    39    40 ar  
    80    39    44 ar  
    81    40    41 ar  
    82    40    85 1   
    83    41    42 ar  
    84    41    86 1   
    85    42    43 ar  
    86    42    87 1   
    87    43    44 ar  
    88    43    88 1   
    89    44    89 1   
    90    50    90 1   
    91    51    90 1   
@<TRIPOS>SUBSTRUCTURE
     1 GRW         1 TEMP              0 ****  ****    0 ROOT
