@<TRIPOS>MOLECULE
GRW
   90    91     1     0     0
SMALL
abcg2


@<TRIPOS>ATOM
      1 C6           5.3830    -0.5280     0.0070 c3         1 GRW       0.096500
      2 C7           4.2020     0.0440    -0.7870 c          1 GRW       0.574100
      3 C10          0.7510     0.4160     0.2660 c          1 GRW       0.598100
      4 C13         -2.4960     1.3870     0.0480 c          1 GRW       0.589100
      5 C15         -4.6360     0.1550     0.1490 c3         1 GRW       0.116700
      6 C17         -3.6160    -2.1500     0.4200 ca         1 GRW      -0.085300
      7 C20         -1.3710    -3.7640    -0.1300 ca         1 GRW      -0.089300
      8 C21         -0.1730    -4.6300    -0.4220 c3         1 GRW       0.194100
      9 C24         -3.5580    -2.9310    -0.7330 ca         1 GRW      -0.110000
     10 C28         -6.9830     4.8670    -0.6820 c3         1 GRW      -0.334100
     11 C23         -2.4600    -3.7340    -0.9980 ca         1 GRW      -0.088000
     12 N22         -0.5610    -6.0140    -0.6440 n8         1 GRW      -0.995200
     13 C19         -1.4250    -2.9820     1.0160 ca         1 GRW      -0.088000
     14 C18         -2.5340    -2.1940     1.2920 ca         1 GRW      -0.110000
     15 C16         -4.8040    -1.2700     0.6940 c3         1 GRW      -0.048100
     16 C25         -5.8960     0.9800     0.4140 c3         1 GRW      -0.064400
     17 S27         -7.2930     3.3020     0.1030 s6         1 GRW       1.080000
     18 O30         -8.3970     2.6390    -0.5930 o          1 GRW      -0.519500
     19 O29         -7.4290     3.5160     1.5440 o          1 GRW      -0.519500
     20 N14         -3.4590     0.7600     0.7380 ns         1 GRW      -0.490900
     21 O31         -2.5740     1.6740    -1.1360 o          1 GRW      -0.611100
     22 C12         -1.2460     1.7360     0.8540 c3         1 GRW      -0.018300
     23 C32         -1.2260     3.2160     1.2820 c3         1 GRW       0.175300
     24 C14         -2.4090     3.5640     2.1650 c3         1 GRW      -0.092100
     25 O33         -0.0510     3.4790     2.0110 oh         1 GRW      -0.649000
     26 N11         -0.0890     1.4420     0.0420 ns         1 GRW      -0.495900
     27 O39          0.7370    -0.2740     1.2710 o          1 GRW      -0.605100
     28 C9           1.7510     0.1520    -0.8550 c3         1 GRW       0.033700
     29 C40          1.2620    -0.9740    -1.7810 c3         1 GRW      -0.090400
     30 C41         -0.0330    -0.7240    -2.5560 c3         1 GRW      -0.059700
     31 C43          0.0400     0.5240    -3.4310 c3         1 GRW      -0.088100
     32 C42         -0.3290    -1.9380    -3.4330 c3         1 GRW      -0.088100
     33 N8           3.0070    -0.2110    -0.2370 ns         1 GRW      -0.501900
     34 O44          4.3630     0.6720    -1.8190 o          1 GRW      -0.591100
     35 N51          6.6490    -0.0160    -0.4920 n2         1 GRW      -0.417200
     36 N52          6.7880     1.1940    -0.4990 n1         1 GRW       0.241000
     37 N53          7.0270     2.2900    -0.5460 n1         1 GRW      -0.055000
     38 C54          5.4290    -2.0550    -0.1120 c3         1 GRW      -0.005100
     39 C55          6.5450    -2.6490     0.7000 ca         1 GRW      -0.080300
     40 C56          7.7410    -3.0370     0.1030 ca         1 GRW      -0.096500
     41 C57          8.7750    -3.5660     0.8660 ca         1 GRW      -0.111000
     42 C58          8.6260    -3.7090     2.2390 ca         1 GRW      -0.106000
     43 C59          7.4370    -3.3230     2.8440 ca         1 GRW      -0.111000
     44 C60          6.4050    -2.7990     2.0780 ca         1 GRW      -0.096500
     45 H1           5.2540    -0.2580     1.0630 h1         1 GRW       0.061700
     46 H2          -4.4680     0.1000    -0.9280 h1         1 GRW       0.085700
     47 H3           0.3100    -4.2750    -1.3390 h1         1 GRW       0.034200
     48 H4           0.5650    -4.4940     0.3800 h1         1 GRW       0.034200
     49 H5          -4.3900    -2.9160    -1.4290 ha         1 GRW       0.108500
     50 H6          -4.9800     2.9480     0.2580 h1         1 GRW       0.100200
     51 H7          -5.6340     2.3360    -1.2690 h1         1 GRW       0.100200
     52 H8          -6.8000     4.7120    -1.7420 h1         1 GRW       0.104700
     53 H9          -7.8730     5.4790    -0.5430 h1         1 GRW       0.104700
     54 H10         -6.1270     5.3470    -0.2140 h1         1 GRW       0.104700
     55 H11         -2.4490    -4.3480    -1.8900 ha         1 GRW       0.123000
     56 H12          0.2580    -6.5520    -0.9010 hn         1 GRW       0.396500
     57 H13         -0.8920    -6.4140     0.2260 hn         1 GRW       0.396500
     58 H15         -0.5940    -2.9920     1.7110 ha         1 GRW       0.123000
     59 H16         -2.5540    -1.6190     2.2120 ha         1 GRW       0.108500
     60 H17         -4.9990    -1.2170     1.7690 hc         1 GRW       0.057200
     61 H18         -5.6990    -1.6990     0.2380 hc         1 GRW       0.057200
     62 H19         -6.7470     0.4520    -0.0200 hc         1 GRW       0.066700
     63 H20         -6.0670     1.0470     1.4910 hc         1 GRW       0.066700
     64 H21         -3.2930     0.5750     1.7140 hn         1 GRW       0.316500
     65 H22         -1.1860     1.1220     1.7540 h1         1 GRW       0.100700
     66 H23         -1.2660     3.8360     0.3740 h1         1 GRW       0.041700
     67 H24         -2.5140     2.8650     2.9970 hc         1 GRW       0.048367
     68 H25         -2.2920     4.5670     2.5740 hc         1 GRW       0.048367
     69 H26         -3.3380     3.5580     1.5980 hc         1 GRW       0.048367
     70 H27          0.7050     3.3180     1.4370 ho         1 GRW       0.452000
     71 H28         -0.0360     1.9180    -0.8470 hn         1 GRW       0.332500
     72 H29          1.9160     1.0610    -1.4350 h1         1 GRW       0.088700
     73 H30          2.0660    -1.1610    -2.5000 hc         1 GRW       0.055700
     74 H31          1.1580    -1.8810    -1.1790 hc         1 GRW       0.055700
     75 H32         -0.8610    -0.6160    -1.8470 hc         1 GRW       0.057700
     76 H33         -0.8530     0.6110    -4.0510 hc         1 GRW       0.035033
     77 H34          0.1160     1.4530    -2.8650 hc         1 GRW       0.035033
     78 H35          0.9040     0.4760    -4.0970 hc         1 GRW       0.035033
     79 H36          0.4430    -2.0620    -4.1970 hc         1 GRW       0.035033
     80 H37         -0.3710    -2.8580    -2.8500 hc         1 GRW       0.035033
     81 H38         -1.2880    -1.8300    -3.9410 hc         1 GRW       0.035033
     82 H39          2.9540    -0.7490     0.6160 hn         1 GRW       0.336500
     83 H41          4.4730    -2.4630     0.2230 hc         1 GRW       0.058700
     84 H42          5.5370    -2.3240    -1.1650 hc         1 GRW       0.058700
     85 H43          7.8650    -2.9270    -0.9680 ha         1 GRW       0.111500
     86 H44          9.6970    -3.8690     0.3860 ha         1 GRW       0.113000
     87 H45          9.4320    -4.1200     2.8330 ha         1 GRW       0.112000
     88 H46          7.3100    -3.4350     3.9130 ha         1 GRW       0.113000
     89 H47          5.4780    -2.5050     2.5570 ha         1 GRW       0.111500
     90 C26         -5.7910     2.3720    -0.1900 c3         1 GRW      -0.294400
@<TRIPOS>BOND
     1     1     2 1   
     2     1    35 1   
     3     1    38 1   
     4     1    45 1   
     5     2    33 1   
     6     2    34 2   
     7     3    26 1   
     8     3    27 2   
     9     3    28 1   
    10     4    20 1   
    11     4    21 2   
    12     4    22 1   
    13     5    15 1   
    14     5    16 1   
    15     5    20 1   
    16     5    46 1   
    17     6     9 ar  
    18     6    14 ar  
    19     6    15 1   
    20     7     8 1   
    21     7    11 ar  
    22     7    13 ar  
    23     8    12 1   
    24     8    47 1   
    25     8    48 1   
    26     9    11 ar  
    27     9    49 1   
    28    10    17 1   
    29    10    52 1   
    30    10    53 1   
    31    10    54 1   
    32    11    55 1   
    33    12    56 1   
    34    12    57 1   
    35    13    14 ar  
    36    13    58 1   
    37    14    59 1   
    38    15    60 1   
    39    15    61 1   
    40    16    62 1   
    41    16    63 1   
    42    16    90 1   
    43    17    18 2   
    44    17    19 2   
    45    17    90 1   
    46    20    64 1   
    47    22    23 1   
    48    22    26 1   
    49    22    65 1   
    50    23    24 1   
    51    23    25 1   
    52    23    66 1   
    53    24    67 1   
    54    24    68 1   
    55    24    69 1   
    56    25    70 1   
    57    26    71 1   
    58    28    29 1   
    59    28    33 1   
    60    28    72 1   
    61    29    30 1   
    62    29    73 1   
    63    29    74 1   
    64    30    31 1   
    65    30    32 1   
    66    30    75 1   
    67    31    76 1   
    68    31    77 1   
    69    31    78 1   
    70    32    79 1   
    71    32    80 1   
    72    32    81 1   
    73    33    82 1   
    74    35    36 1   
    75    36    37 3   
    76    38    39 1   
    77    38    83 1   
    78    38    84 1   
    79    39    40 ar  
    80    39    44 ar  
    81    40    41 ar  
    82    40    85 1   
    83    41    42 ar  
    84    41    86 1   
    85    42    43 ar  
    86    42    87 1   
    87    43    44 ar  
    88    43    88 1   
    89    44    89 1   
    90    50    90 1   
    91    51    90 1   
@<TRIPOS>SUBSTRUCTURE
     1 GRW         1 TEMP              0 ****  ****    0 ROOT
