@<TRIPOS>MOLECULE
GRX
   29    29     1     0     0
SMALL
abcg2


@<TRIPOS>ATOM
      1 O1P         -2.4860    -1.6880     0.8630 o          1 GRX      -0.918833
      2 P           -2.7210    -0.4490     0.0040 p5         1 GRX       1.287500
      3 O2P         -2.5100    -0.6400    -1.5020 o          1 GRX      -0.918833
      4 O3P         -4.0180     0.2920     0.3500 o          1 GRX      -0.918833
      5 C7          -1.3920     0.7850     0.5120 c3         1 GRX      -0.076700
      6 F1          -1.8170     2.0610     0.0940 f          1 GRX      -0.288000
      7 C1          -0.0110     0.5530    -0.0860 c6         1 GRX       0.170300
      8 O5           0.4030    -0.7120     0.3760 os         1 GRX      -0.375000
      9 C5           1.5950    -1.1850    -0.1980 c6         1 GRX       0.150300
     10 C6           1.8200    -2.6070     0.2660 c3         1 GRX       0.181600
     11 O6           0.8330    -3.4460    -0.2810 oh         1 GRX      -0.646000
     12 C4           2.7490    -0.2660     0.2170 c6         1 GRX       0.094300
     13 O4           3.9680    -0.6110    -0.4080 oh         1 GRX      -0.746000
     14 C3           2.4140     1.1540    -0.2050 c6         1 GRX       0.117300
     15 O3           3.3630     2.0840     0.2690 oh         1 GRX      -0.685000
     16 C2           1.0480     1.5910     0.3140 c6         1 GRX       0.135300
     17 O2           0.7230     2.8560    -0.2090 oh         1 GRX      -0.679000
     18 H7          -1.3010     0.8290     1.6060 h1         1 GRX       0.011700
     19 H1          -0.1050     0.5460    -1.1830 h1         1 GRX       0.078700
     20 H2           1.0910     1.6200     1.4160 h1         1 GRX       0.032700
     21 H5           1.5230    -1.1790    -1.2990 h1         1 GRX       0.058700
     22 H61C         2.8230    -2.9170    -0.0530 h1         1 GRX      -0.008800
     23 H62C         1.8130    -2.6270     1.3650 h1         1 GRX      -0.008800
     24 H4           2.8470    -0.3000     1.3120 h1         1 GRX       0.040700
     25 HA           4.4280    -1.2580     0.1330 ho         1 GRX       0.487000
     26 H3           2.3700     1.1750    -1.3070 h1         1 GRX       0.049700
     27 HB           4.2070     1.8940    -0.1510 ho         1 GRX       0.431000
     28 HC           1.4700     3.4380    -0.0350 ho         1 GRX       0.474000
     29 H6           1.0510    -4.3510    -0.0400 ho         1 GRX       0.469000
@<TRIPOS>BOND
     1     1     2 1   
     2     2     3 1   
     3     2     4 1   
     4     2     5 1   
     5     5     6 1   
     6     5     7 1   
     7     5    18 1   
     8     7     8 1   
     9     7    16 1   
    10     7    19 1   
    11     8     9 1   
    12     9    10 1   
    13     9    12 1   
    14     9    21 1   
    15    10    11 1   
    16    10    22 1   
    17    10    23 1   
    18    11    29 1   
    19    12    13 1   
    20    12    14 1   
    21    12    24 1   
    22    13    25 1   
    23    14    15 1   
    24    14    16 1   
    25    14    26 1   
    26    15    27 1   
    27    16    17 1   
    28    16    20 1   
    29    17    28 1   
@<TRIPOS>SUBSTRUCTURE
     1 GRX         1 TEMP              0 ****  ****    0 ROOT
