@<TRIPOS>MOLECULE
GRX
   29    29     1     0     0
SMALL
No Charge or Current Charge


@<TRIPOS>ATOM
      1 O1P         -2.7650    -1.6680     0.6070 o          1 GRX      -0.918833
      2 P           -2.8040    -0.3440    -0.0840 p5         1 GRX       1.287500
      3 O2P         -2.6170    -0.5350    -1.5550 o          1 GRX      -0.918833
      4 O3P         -4.1480     0.2700     0.1540 o          1 GRX      -0.918833
      5 C7          -1.4610     0.7890     0.5970 c3         1 GRX      -0.076700
      6 F1          -1.8720     2.0910     0.5340 f          1 GRX      -0.288000
      7 C1          -0.0590     0.5770    -0.0710 c6         1 GRX       0.170300
      8 O5           0.3970    -0.7330     0.3570 os         1 GRX      -0.375000
      9 C5           1.6500    -1.1780    -0.2280 c6         1 GRX       0.150300
     10 C6           1.9180    -2.6470     0.2410 c3         1 GRX       0.181600
     11 O6           0.8650    -3.5590    -0.1060 oh         1 GRX      -0.646000
     12 C4           2.7960    -0.2010     0.1860 c6         1 GRX       0.094300
     13 O4           4.0710    -0.5640    -0.3930 oh         1 GRX      -0.746000
     14 C3           2.4080     1.2320    -0.2680 c6         1 GRX       0.117300
     15 O3           3.4320     2.1670     0.1180 oh         1 GRX      -0.685000
     16 C2           1.0270     1.6480     0.3180 c6         1 GRX       0.135300
     17 O2           0.7340     2.9720    -0.1650 oh         1 GRX      -0.679000
     18 H7          -1.3650     0.5420     1.6610 h1         1 GRX       0.011700
     19 H1          -0.1860     0.5720    -1.1630 h1         1 GRX       0.078700
     20 H2           1.1090     1.6660     1.4150 h1         1 GRX       0.032700
     21 H5           1.5470    -1.1810    -1.3230 h1         1 GRX       0.058700
     22 H61C         2.8570    -2.9940    -0.2090 h1         1 GRX      -0.008800
     23 H62C         2.0590    -2.6430     1.3300 h1         1 GRX      -0.008800
     24 H4           2.8720    -0.2080     1.2840 h1         1 GRX       0.040700
     25 HA           4.4250    -1.3250     0.1240 ho         1 GRX       0.487000
     26 H3           2.3200     1.2200    -1.3650 h1         1 GRX       0.049700
     27 HB           4.2730     1.6710    -0.0130 ho         1 GRX       0.431000
     28 HC           1.6090     3.4260    -0.1600 ho         1 GRX       0.474000
     29 H6           1.0830    -4.4200     0.3170 ho         1 GRX       0.469000
@<TRIPOS>BOND
     1     1     2 1   
     2     2     3 1   
     3     2     4 1   
     4     2     5 1   
     5     5     6 1   
     6     5     7 1   
     7     5    18 1   
     8     7     8 1   
     9     7    16 1   
    10     7    19 1   
    11     8     9 1   
    12     9    10 1   
    13     9    12 1   
    14     9    21 1   
    15    10    11 1   
    16    10    22 1   
    17    10    23 1   
    18    11    29 1   
    19    12    13 1   
    20    12    14 1   
    21    12    24 1   
    22    13    25 1   
    23    14    15 1   
    24    14    16 1   
    25    14    26 1   
    26    15    27 1   
    27    16    17 1   
    28    16    20 1   
    29    17    28 1   
@<TRIPOS>SUBSTRUCTURE
     1 GRX         1 TEMP              0 ****  ****    0 ROOT
