@<TRIPOS>MOLECULE
GRY
   30    31     1     0     0
SMALL
bcc


@<TRIPOS>ATOM
      1 N1          -2.2780    -1.1460     0.0160 nb         1 GRY      -0.780500
      2 N3           5.4040     0.4080    -0.1180 nv         1 GRY      -0.816200
      3 C4          -3.4540    -0.5370    -0.0180 ca         1 GRY       0.500600
      4 C5          -4.6700    -1.4060    -0.0050 c3         1 GRY      -0.151400
      5 C6          -1.1900    -0.3680     0.0090 ca         1 GRY       0.922900
      6 C7           1.3110    -0.6070     0.0040 ca         1 GRY       0.137600
      7 C8           2.2920    -1.5670    -0.2600 ca         1 GRY      -0.128000
      8 C10          4.0640     0.0660    -0.0400 ca         1 GRY       0.117600
      9 C1          -2.3490     3.0650    -0.0770 c3         1 GRY      -0.151400
     10 C2          -2.3620     1.5700    -0.0590 ca         1 GRY       0.500600
     11 C3          -3.5480     0.8520    -0.0640 ca         1 GRY      -0.428600
     12 N2          -0.0150    -1.0500     0.0290 nu         1 GRY      -0.735300
     13 C9           3.6360    -1.2440    -0.2800 ca         1 GRY      -0.166500
     14 C11          3.0820     1.0210     0.2250 ca         1 GRY      -0.166500
     15 C12          1.7320     0.6990     0.2520 ca         1 GRY      -0.128000
     16 N4          -1.1800     0.9600    -0.0200 nb         1 GRY      -0.780500
     17 H1           6.0490    -0.3420     0.0750 hn         1 GRY       0.384800
     18 H2           5.6590     1.2430     0.3850 hn         1 GRY       0.384800
     19 H3          -4.7120    -1.9830     0.9200 hc         1 GRY       0.055200
     20 H4          -5.5850    -0.8230    -0.0870 hc         1 GRY       0.055200
     21 H5          -4.6390    -2.1200    -0.8290 hc         1 GRY       0.055200
     22 H6           1.9990    -2.5920    -0.4580 ha         1 GRY       0.145000
     23 H7          -1.6100     3.4350    -0.7870 hc         1 GRY       0.055200
     24 H8          -3.3240     3.4730    -0.3360 hc         1 GRY       0.055200
     25 H9          -2.0730     3.4480     0.9070 hc         1 GRY       0.055200
     26 H10         -4.5070     1.3500    -0.0940 ha         1 GRY       0.150000
     27 H11         -0.1370    -2.0510     0.0380 hn         1 GRY       0.451800
     28 H12          4.3630    -2.0200    -0.4890 ha         1 GRY       0.129500
     29 H13          3.3750     2.0450     0.4290 ha         1 GRY       0.129500
     30 H14          1.0120     1.4760     0.4500 ha         1 GRY       0.145000
@<TRIPOS>BOND
     1     1     3 ar  
     2     1     5 ar  
     3     2     8 1   
     4     2    17 1   
     5     2    18 1   
     6     3     4 1   
     7     3    11 ar  
     8     4    19 1   
     9     4    20 1   
    10     4    21 1   
    11     5    12 1   
    12     5    16 ar  
    13     6     7 ar  
    14     6    12 1   
    15     6    15 ar  
    16     7    13 ar  
    17     7    22 1   
    18     8    13 ar  
    19     8    14 ar  
    20     9    10 1   
    21     9    23 1   
    22     9    24 1   
    23     9    25 1   
    24    10    11 ar  
    25    10    16 ar  
    26    11    26 1   
    27    12    27 1   
    28    13    28 1   
    29    14    15 ar  
    30    14    29 1   
    31    15    30 1   
@<TRIPOS>SUBSTRUCTURE
     1 GRY         1 TEMP              0 ****  ****    0 ROOT
