@<TRIPOS>MOLECULE
GRY
   30    31     1     0     0
SMALL
No Charge or Current Charge


@<TRIPOS>ATOM
      1 N1          -2.2880    -1.1430     0.0970 nb         1 GRY      -0.254500
      2 N3           5.4270     0.3830     0.0700 nv         1 GRY      -1.065000
      3 C4          -3.4890    -0.5320     0.0700 ca         1 GRY       0.172300
      4 C5          -4.7130    -1.4170     0.2020 c3         1 GRY      -0.151400
      5 C6          -1.2060    -0.3530    -0.0120 ca         1 GRY       0.396900
      6 C7           1.3540    -0.6400     0.0150 ca         1 GRY       0.276000
      7 C8           2.3210    -1.5210    -0.5040 ca         1 GRY      -0.110000
      8 C10          4.0990     0.0490     0.0540 ca         1 GRY       0.256000
      9 C1          -2.4060     3.1030    -0.3560 c3         1 GRY      -0.151400
     10 C2          -2.4010     1.5950    -0.1960 ca         1 GRY       0.172300
     11 C3          -3.5930     0.8610    -0.0750 ca         1 GRY      -0.280000
     12 N2           0.0070    -1.0300    -0.0100 nu         1 GRY      -0.928900
     13 C9           3.6870    -1.1770    -0.4890 ca         1 GRY      -0.148500
     14 C11          3.1440     0.9270     0.5880 ca         1 GRY      -0.148500
     15 C12          1.7780     0.5840     0.5730 ca         1 GRY      -0.110000
     16 N4          -1.2010     0.9840    -0.1680 nb         1 GRY      -0.254500
     17 H1           6.1310    -0.2980    -0.2120 hn         1 GRY       0.440000
     18 H2           5.7420     1.2170     0.5630 hn         1 GRY       0.440000
     19 H3          -4.7210    -1.9330     1.1690 hc         1 GRY       0.055200
     20 H4          -5.6400    -0.8360     0.1280 hc         1 GRY       0.055200
     21 H5          -4.7350    -2.1780    -0.5870 hc         1 GRY       0.055200
     22 H6           2.0160    -2.4730    -0.9290 ha         1 GRY       0.127000
     23 H7          -1.6250     3.4320    -1.0530 hc         1 GRY       0.055200
     24 H8          -3.3670     3.4590    -0.7450 hc         1 GRY       0.055200
     25 H9          -2.2290     3.5970     0.6060 hc         1 GRY       0.055200
     26 H10         -4.5600     1.3550    -0.0940 ha         1 GRY       0.132000
     27 H11         -0.1240    -2.0360    -0.1190 hn         1 GRY       0.507000
     28 H12          4.4190    -1.8660    -0.9010 ha         1 GRY       0.111500
     29 H13          3.4550     1.8740     1.0210 ha         1 GRY       0.111500
     30 H14          1.0620     1.2680     1.0140 ha         1 GRY       0.127000
@<TRIPOS>BOND
     1     1     3 ar  
     2     1     5 ar  
     3     2     8 1   
     4     2    17 1   
     5     2    18 1   
     6     3     4 1   
     7     3    11 ar  
     8     4    19 1   
     9     4    20 1   
    10     4    21 1   
    11     5    12 1   
    12     5    16 ar  
    13     6     7 ar  
    14     6    12 1   
    15     6    15 ar  
    16     7    13 ar  
    17     7    22 1   
    18     8    13 ar  
    19     8    14 ar  
    20     9    10 1   
    21     9    23 1   
    22     9    24 1   
    23     9    25 1   
    24    10    11 ar  
    25    10    16 ar  
    26    11    26 1   
    27    12    27 1   
    28    13    28 1   
    29    14    15 ar  
    30    14    29 1   
    31    15    30 1   
@<TRIPOS>SUBSTRUCTURE
     1 GRY         1 TEMP              0 ****  ****    0 ROOT
