@<TRIPOS>MOLECULE
GRZ
   34    36     1     0     0
SMALL
No Charge or Current Charge


@<TRIPOS>ATOM
      1 C1          -4.6100     2.4510     0.2670 ca         1 GRZ       0.178000
      2 C2          -3.8520     2.5210     1.4470 ca         1 GRZ      -0.141500
      3 C3          -2.6600     1.7800     1.5590 ca         1 GRZ      -0.085500
      4 C4          -2.2350     0.9660     0.4940 ca         1 GRZ       0.067100
      5 C5          -2.9930     0.9080    -0.6950 ca         1 GRZ      -0.085500
      6 C6          -4.1840     1.6500    -0.8040 ca         1 GRZ      -0.141500
      7 C13         -0.8590    -0.9750     0.0530 ca         1 GRZ       0.147100
      8 C14          0.3600    -1.2580    -0.6010 ca         1 GRZ      -0.037200
      9 C15          0.5570    -2.5280    -1.1830 ca         1 GRZ      -0.045000
     10 C16         -0.4470    -3.5070    -1.1010 ca         1 GRZ       0.089000
     11 C17         -1.6530    -3.2280    -0.4380 ca         1 GRZ      -0.054000
     12 C18         -1.8580    -1.9640     0.1420 ca         1 GRZ      -0.169000
     13 C26          2.9960     0.8820    -0.0370 cc         1 GRZ       0.116500
     14 C27          2.0290     0.0520     0.4530 cd         1 GRZ      -0.097000
     15 C28          3.9960     1.5640     0.8380 c          1 GRZ       0.548600
     16 Cl1         -0.1900    -5.0880    -1.8270 cl         1 GRZ      -0.176000
     17 O12         -1.0590     0.2630     0.6260 os         1 GRZ      -0.243200
     18 N23          1.3620    -0.2940    -0.6930 na         1 GRZ       0.219000
     19 N24          1.9190     0.2290    -1.8240 nd         1 GRZ      -0.182800
     20 N25          2.9120     0.9830    -1.4120 nc         1 GRZ      -0.350000
     21 N29          4.8990     2.3560     0.1350 ns         1 GRZ      -0.368400
     22 O30          5.7560     3.3040     0.8190 oh         1 GRZ      -0.425100
     23 O31          4.0410     1.4450     2.0600 o          1 GRZ      -0.577100
     24 F1          -5.7530     3.1630     0.1600 f          1 GRZ      -0.170000
     25 H1          -4.1860     3.1480     2.2700 ha         1 GRZ       0.141000
     26 H2          -2.0680     1.8330     2.4690 ha         1 GRZ       0.137000
     27 H3          -2.6610     0.2980    -1.5320 ha         1 GRZ       0.137000
     28 H4          -4.7740     1.6080    -1.7170 ha         1 GRZ       0.141000
     29 H5           1.4880    -2.7560    -1.6960 ha         1 GRZ       0.156000
     30 H6          -2.4250    -3.9920    -0.3720 ha         1 GRZ       0.138000
     31 H7          -2.7910    -1.7540     0.6600 ha         1 GRZ       0.139000
     32 H8           1.7790    -0.2830     1.4510 h4         1 GRZ       0.192000
     33 H9           4.7260     2.5290    -0.8560 hn         1 GRZ       0.357500
     34 H10          6.6510     3.1160     0.4490 ho         1 GRZ       0.446000
@<TRIPOS>BOND
     1     1     2 ar  
     2     1     6 ar  
     3     1    24 1   
     4     2     3 ar  
     5     2    25 1   
     6     3     4 ar  
     7     3    26 1   
     8     4     5 ar  
     9     4    17 1   
    10     5     6 ar  
    11     5    27 1   
    12     6    28 1   
    13     7     8 ar  
    14     7    12 ar  
    15     7    17 1   
    16     8     9 ar  
    17     8    18 1   
    18     9    10 ar  
    19     9    29 1   
    20    10    11 ar  
    21    10    16 1   
    22    11    12 ar  
    23    11    30 1   
    24    12    31 1   
    25    13    14 2   
    26    13    15 1   
    27    13    20 1   
    28    14    18 1   
    29    14    32 1   
    30    15    21 1   
    31    15    23 2   
    32    18    19 1   
    33    19    20 2   
    34    21    22 1   
    35    21    33 1   
    36    22    34 1   
@<TRIPOS>SUBSTRUCTURE
     1 GRZ         1 TEMP              0 ****  ****    0 ROOT
