@<TRIPOS>MOLECULE
GRZ
   34    36     1     0     0
SMALL
abcg2


@<TRIPOS>ATOM
      1 C1          -4.6400     2.2450     0.5310 ca         1 GRZ       0.178000
      2 C2          -3.9590     1.9010     1.6830 ca         1 GRZ      -0.141500
      3 C3          -2.7280     1.2710     1.5680 ca         1 GRZ      -0.085500
      4 C4          -2.2110     1.0080     0.3110 ca         1 GRZ       0.067100
      5 C5          -2.9010     1.3630    -0.8380 ca         1 GRZ      -0.085500
      6 C6          -4.1330     1.9880    -0.7290 ca         1 GRZ      -0.141500
      7 C13         -0.8680    -0.8690    -0.1480 ca         1 GRZ       0.147100
      8 C14          0.4030    -1.3300    -0.4930 ca         1 GRZ      -0.037200
      9 C15          0.6070    -2.6470    -0.8700 ca         1 GRZ      -0.045000
     10 C16         -0.4730    -3.5110    -0.9100 ca         1 GRZ       0.089000
     11 C17         -1.7400    -3.0730    -0.5620 ca         1 GRZ      -0.054000
     12 C18         -1.9360    -1.7560    -0.1790 ca         1 GRZ      -0.169000
     13 C26          3.0490     0.9530    -0.0340 cc         1 GRZ       0.116500
     14 C27          1.9370     0.3580     0.4990 cd         1 GRZ      -0.097000
     15 C28          3.9250     1.9440     0.6170 c          1 GRZ       0.548600
     16 CL1         -0.2290    -5.1550    -1.3830 cl         1 GRZ      -0.176000
     17 O12         -0.9650     0.4280     0.2140 os         1 GRZ      -0.243200
     18 N23          1.5020    -0.4430    -0.4860 na         1 GRZ       0.219000
     19 N24          2.2910    -0.3530    -1.5600 nd         1 GRZ      -0.182800
     20 N25          3.2180     0.4830    -1.2910 nc         1 GRZ      -0.350000
     21 N29          4.9940     2.2840    -0.1230 ns         1 GRZ      -0.368400
     22 O30          5.7690     3.3310     0.2680 oh         1 GRZ      -0.425100
     23 O31          3.6860     2.3690     1.7330 o          1 GRZ      -0.577100
     24 F1          -5.8320     2.8520     0.6380 f          1 GRZ      -0.170000
     25 H1          -4.3800     2.1170     2.6560 ha         1 GRZ       0.141000
     26 H2          -2.1760     0.9940     2.4560 ha         1 GRZ       0.137000
     27 H3          -2.4830     1.1580    -1.8160 ha         1 GRZ       0.137000
     28 H4          -4.6870     2.2710    -1.6150 ha         1 GRZ       0.141000
     29 H5           1.6010    -2.9840    -1.1280 ha         1 GRZ       0.156000
     30 H6          -2.5820    -3.7510    -0.5860 ha         1 GRZ       0.138000
     31 H7          -2.9320    -1.4300     0.0890 ha         1 GRZ       0.139000
     32 H8           1.4660     0.4290     1.4640 h4         1 GRZ       0.192000
     33 H9           5.0700     2.0330    -1.1000 hn         1 GRZ       0.357500
     34 H10          6.5490     2.9450     0.6880 ho         1 GRZ       0.446000
@<TRIPOS>BOND
     1     1     2 ar  
     2     1     6 ar  
     3     1    24 1   
     4     2     3 ar  
     5     2    25 1   
     6     3     4 ar  
     7     3    26 1   
     8     4     5 ar  
     9     4    17 1   
    10     5     6 ar  
    11     5    27 1   
    12     6    28 1   
    13     7     8 ar  
    14     7    12 ar  
    15     7    17 1   
    16     8     9 ar  
    17     8    18 1   
    18     9    10 ar  
    19     9    29 1   
    20    10    11 ar  
    21    10    16 1   
    22    11    12 ar  
    23    11    30 1   
    24    12    31 1   
    25    13    14 2   
    26    13    15 1   
    27    13    20 1   
    28    14    18 1   
    29    14    32 1   
    30    15    21 1   
    31    15    23 2   
    32    18    19 1   
    33    19    20 2   
    34    21    22 1   
    35    21    33 1   
    36    22    34 1   
@<TRIPOS>SUBSTRUCTURE
     1 GRZ         1 TEMP              0 ****  ****    0 ROOT
