@<TRIPOS>MOLECULE
GS1
   24    24     1     0     0
SMALL
bcc


@<TRIPOS>ATOM
      1 C1          -7.7050    10.3340    60.3090 c6         1 GS1       0.243200
      2 S1          -9.0150    10.3170    59.0600 sh         1 GS1      -0.313900
      3 C2          -8.1460     9.4960    61.5050 c6         1 GS1       0.136100
      4 O2          -9.3050    10.0720    62.0410 oh         1 GS1      -0.580800
      5 C3          -7.0080     9.4650    62.5190 c6         1 GS1       0.111100
      6 O3          -7.4130     8.6140    63.5650 oh         1 GS1      -0.601800
      7 C4          -5.7070     9.0040    61.8730 c6         1 GS1       0.096100
      8 O4          -4.6960     9.1230    62.8410 oh         1 GS1      -0.605800
      9 C5          -5.4280     9.8480    60.6230 c6         1 GS1       0.096100
     10 O5          -6.5400     9.7940    59.7480 os         1 GS1      -0.399600
     11 C6          -4.2500     9.3350    59.8070 c3         1 GS1       0.137400
     12 O6          -3.0940     9.3690    60.6210 oh         1 GS1      -0.616800
     13 H1          -7.5370    11.3720    60.6270 h2         1 GS1       0.065700
     14 HS1         -8.4800    11.2450    58.2580 hs         1 GS1       0.204800
     15 H2          -8.3310     8.4680    61.1540 h1         1 GS1       0.067700
     16 HO2         -9.5410     9.5850    62.8370 ho         1 GS1       0.426000
     17 H3          -6.8570    10.4930    62.8860 h1         1 GS1       0.050700
     18 HO3         -6.8240     8.7450    64.3150 ho         1 GS1       0.427000
     19 H4          -5.8310     7.9570    61.5480 h1         1 GS1       0.053700
     20 HO4         -3.8500     9.0090    62.3860 ho         1 GS1       0.436000
     21 H5          -5.2370    10.8880    60.9330 h1         1 GS1       0.060700
     22 H61         -4.4720     8.3160    59.4680 h1         1 GS1       0.043200
     23 H62         -4.1280     9.9620    58.9160 h1         1 GS1       0.043200
     24 HO6         -2.4060     8.8400    60.2050 ho         1 GS1       0.420000
@<TRIPOS>BOND
     1     1     2 1   
     2     1     3 1   
     3     1    10 1   
     4     1    13 1   
     5     2    14 1   
     6     3     4 1   
     7     3     5 1   
     8     3    15 1   
     9     4    16 1   
    10     5     6 1   
    11     5     7 1   
    12     5    17 1   
    13     6    18 1   
    14     7     8 1   
    15     7     9 1   
    16     7    19 1   
    17     8    20 1   
    18     9    10 1   
    19     9    11 1   
    20     9    21 1   
    21    11    12 1   
    22    11    22 1   
    23    11    23 1   
    24    12    24 1   
@<TRIPOS>SUBSTRUCTURE
     1 GS1         1 TEMP              0 ****  ****    0 ROOT
