@<TRIPOS>MOLECULE
GS1
   24    24     1     0     0
SMALL
No Charge or Current Charge


@<TRIPOS>ATOM
      1 C1          -7.7840    10.3880    60.2810 c6         1 GS1       0.314300
      2 S1          -9.0660    10.3140    58.9260 sh         1 GS1      -0.361800
      3 C2          -8.2410     9.5560    61.5280 c6         1 GS1       0.159300
      4 O2          -9.4240    10.0940    62.1600 oh         1 GS1      -0.703000
      5 C3          -7.0780     9.5060    62.5630 c6         1 GS1       0.134300
      6 O3          -7.4310     8.6920    63.6950 oh         1 GS1      -0.664000
      7 C4          -5.7860     8.9630    61.8900 c6         1 GS1       0.119300
      8 O4          -4.6860     8.9560    62.8180 oh         1 GS1      -0.728000
      9 C5          -5.4470     9.8400    60.6460 c6         1 GS1       0.119300
     10 O5          -6.5660     9.8380    59.7300 os         1 GS1      -0.446000
     11 C6          -4.1930     9.3230    59.8760 c3         1 GS1       0.160600
     12 O6          -3.0240     9.2520    60.7220 oh         1 GS1      -0.739000
     13 H1          -7.6270    11.4400    60.5630 h2         1 GS1       0.065700
     14 HS1         -8.3370    11.0270    58.0370 hs         1 GS1       0.204800
     15 H2          -8.4380     8.5280    61.1860 h1         1 GS1       0.067700
     16 HO2         -9.4330     9.6890    63.0610 ho         1 GS1       0.525000
     17 H3          -6.8750    10.5340    62.8990 h1         1 GS1       0.050700
     18 HO3         -6.5690     8.4580    64.1120 ho         1 GS1       0.466000
     19 H4          -5.9780     7.9380    61.5370 h1         1 GS1       0.053700
     20 HO4         -3.8800     9.0340    62.2280 ho         1 GS1       0.535000
     21 H5          -5.2540    10.8760    60.9630 h1         1 GS1       0.060700
     22 H61         -4.4230     8.3320    59.4620 h1         1 GS1       0.043200
     23 H62         -4.0100    10.0010    59.0300 h1         1 GS1       0.043200
     24 HO6         -2.2520     9.0730    60.1300 ho         1 GS1       0.519000
@<TRIPOS>BOND
     1     1     2 1   
     2     1     3 1   
     3     1    10 1   
     4     1    13 1   
     5     2    14 1   
     6     3     4 1   
     7     3     5 1   
     8     3    15 1   
     9     4    16 1   
    10     5     6 1   
    11     5     7 1   
    12     5    17 1   
    13     6    18 1   
    14     7     8 1   
    15     7     9 1   
    16     7    19 1   
    17     8    20 1   
    18     9    10 1   
    19     9    11 1   
    20     9    21 1   
    21    11    12 1   
    22    11    22 1   
    23    11    23 1   
    24    12    24 1   
@<TRIPOS>SUBSTRUCTURE
     1 GS1         1 TEMP              0 ****  ****    0 ROOT
