@<TRIPOS>MOLECULE
GS2
   66    70     1     0     0
SMALL
abcg2


@<TRIPOS>ATOM
      1 C1          -7.4820     2.2290    -2.3160 c3         1 GS2       0.094300
      2 N1          -6.9510     0.9880    -1.7980 ns         1 GS2      -0.482900
      3 C2          -6.2530     0.9330    -0.6650 c          1 GS2       0.625700
      4 O1          -5.9960     1.9390    -0.0030 o          1 GS2      -0.634100
      5 C3          -5.7460    -0.4130    -0.2470 ca         1 GS2      -0.262600
      6 C4          -6.5750    -1.5240    -0.2120 ca         1 GS2       0.218000
      7 F1          -7.8650    -1.3720    -0.5480 f          1 GS2      -0.180000
      8 C5          -6.1500    -2.7810     0.1610 ca         1 GS2      -0.194000
      9 C6          -4.8210    -2.9240     0.5230 ca         1 GS2      -0.042000
     10 C7          -3.9530    -1.8450     0.5350 ca         1 GS2      -0.159000
     11 C8          -4.4050    -0.5740     0.1720 ca         1 GS2       0.390000
     12 N2          -3.6080     0.5590     0.2160 nu         1 GS2      -0.941900
     13 C9          -2.2550     0.6960     0.2190 ca         1 GS2       0.469900
     14 N3          -1.4600    -0.3540     0.1730 nb         1 GS2      -0.340000
     15 C10         -0.1250    -0.1620     0.1720 ca         1 GS2       0.433900
     16 N4           0.5720    -1.3360     0.1370 nu         1 GS2      -0.922900
     17 C11          1.9350    -1.5920     0.1670 ca         1 GS2       0.318000
     18 C12          2.9210    -0.6170     0.0990 ca         1 GS2      -0.115000
     19 C13          4.2520    -1.0250     0.1400 ca         1 GS2      -0.075000
     20 N5           5.4370    -0.2820     0.1070 n          1 GS2      -0.096600
     21 C14          6.5070    -1.1740     0.1930 cc         1 GS2      -0.141400
     22 C15          6.0430    -2.4390     0.2790 cd         1 GS2      -0.203200
     23 C16          4.6100    -2.3710     0.2480 ca         1 GS2      -0.100800
     24 C17          3.6180    -3.3530     0.3090 ca         1 GS2      -0.132000
     25 C18          2.2960    -2.9670     0.2670 ca         1 GS2       0.070100
     26 O2           1.2510    -3.8230     0.3160 os         1 GS2      -0.363100
     27 C19          1.5130    -5.2090     0.3830 c3         1 GS2       0.155900
     28 C20          5.5420     1.0920    -0.0370 c          1 GS2       0.613100
     29 O3           4.5620     1.7810    -0.1860 o          1 GS2      -0.516100
     30 C21          6.9550     1.6480    -0.0080 c3         1 GS2       0.088800
     31 N6           6.9760     3.0850    -0.0560 n3         1 GS2      -0.695600
     32 C22          6.6380     3.6800     1.2210 c3         1 GS2       0.148100
     33 C23          8.2560     3.5740    -0.5280 c3         1 GS2       0.148100
     34 N7           0.5100     0.9930     0.2020 nb         1 GS2      -0.269000
     35 C24         -0.3130     2.0430     0.2460 ca         1 GS2       0.180500
     36 N8           0.0520     3.3430     0.2800 na         1 GS2      -0.315400
     37 C25         -1.0740     4.1330     0.3170 cc         1 GS2      -0.189100
     38 C26         -2.1840     3.3420     0.3050 cd         1 GS2      -0.189200
     39 C27         -1.7100     1.9950     0.2610 ca         1 GS2      -0.286800
     40 H1          -8.0110     2.0130    -3.2390 h1         1 GS2       0.043367
     41 H1A         -8.1810     2.6860    -1.6150 h1         1 GS2       0.043367
     42 H1B         -6.6890     2.9450    -2.5290 h1         1 GS2       0.043367
     43 HN1         -7.0700     0.1550    -2.3510 hn         1 GS2       0.326500
     44 H5          -6.8400    -3.6140     0.1720 ha         1 GS2       0.136000
     45 H6          -4.4520    -3.8960     0.8190 ha         1 GS2       0.119000
     46 H7          -2.9280    -1.9840     0.8350 ha         1 GS2       0.157000
     47 HN2         -4.1330     1.4240     0.2370 hn         1 GS2       0.541000
     48 HN4         -0.0230    -2.1490     0.1340 hn         1 GS2       0.525000
     49 H12          2.6400     0.4170     0.0190 ha         1 GS2       0.182000
     50 H14          7.5260    -0.8290     0.1780 h4         1 GS2       0.211000
     51 H15          6.6500    -3.3270     0.3550 ha         1 GS2       0.204000
     52 H17          3.9000    -4.3950     0.3910 ha         1 GS2       0.121000
     53 H19          2.0530    -5.4770     1.2950 h1         1 GS2       0.039700
     54 H19A         0.5460    -5.7060     0.3890 h1         1 GS2       0.039700
     55 H19B         2.0840    -5.5550    -0.4820 h1         1 GS2       0.039700
     56 H21          7.4900     1.2440     0.8680 h1         1 GS2       0.055200
     57 H21A         7.4750     1.2520    -0.8870 h1         1 GS2       0.055200
     58 H22          7.3590     3.4240     2.0130 h1         1 GS2       0.035700
     59 H22A         6.6210     4.7660     1.1270 h1         1 GS2       0.035700
     60 H22B         5.6490     3.3660     1.5500 h1         1 GS2       0.035700
     61 H23          8.4760     3.1640    -1.5140 h1         1 GS2       0.035700
     62 H23A         8.2210     4.6600    -0.6190 h1         1 GS2       0.035700
     63 H23B         9.0950     3.3230     0.1390 h1         1 GS2       0.035700
     64 HN8          1.0010     3.6820     0.2800 hn         1 GS2       0.366000
     65 H25         -0.9880     5.2060     0.3470 h4         1 GS2       0.217000
     66 H26         -3.2050     3.6910     0.3260 ha         1 GS2       0.213000
@<TRIPOS>BOND
     1     1     2 1   
     2     1    40 1   
     3     1    41 1   
     4     1    42 1   
     5     2     3 1   
     6     2    43 1   
     7     3     4 2   
     8     3     5 1   
     9     5     6 ar  
    10     5    11 ar  
    11     6     7 1   
    12     6     8 ar  
    13     8     9 ar  
    14     8    44 1   
    15     9    10 ar  
    16     9    45 1   
    17    10    11 ar  
    18    10    46 1   
    19    11    12 1   
    20    12    13 1   
    21    12    47 1   
    22    13    14 ar  
    23    13    39 ar  
    24    14    15 ar  
    25    15    16 1   
    26    15    34 ar  
    27    16    17 1   
    28    16    48 1   
    29    17    18 ar  
    30    17    25 ar  
    31    18    19 ar  
    32    18    49 1   
    33    19    20 1   
    34    19    23 ar  
    35    20    21 1   
    36    20    28 1   
    37    21    22 2   
    38    21    50 1   
    39    22    23 1   
    40    22    51 1   
    41    23    24 ar  
    42    24    25 ar  
    43    24    52 1   
    44    25    26 1   
    45    26    27 1   
    46    27    53 1   
    47    27    54 1   
    48    27    55 1   
    49    28    29 2   
    50    28    30 1   
    51    30    31 1   
    52    30    56 1   
    53    30    57 1   
    54    31    32 1   
    55    31    33 1   
    56    32    58 1   
    57    32    59 1   
    58    32    60 1   
    59    33    61 1   
    60    33    62 1   
    61    33    63 1   
    62    34    35 ar  
    63    35    36 1   
    64    35    39 ar  
    65    36    37 1   
    66    36    64 1   
    67    37    38 2   
    68    37    65 1   
    69    38    39 1   
    70    38    66 1   
@<TRIPOS>SUBSTRUCTURE
     1 GS2         1 TEMP              0 ****  ****    0 ROOT
