@<TRIPOS>MOLECULE
GS2
   66    70     1     0     0
SMALL
No Charge or Current Charge


@<TRIPOS>ATOM
      1 C1          -7.4770     2.5170    -2.6230 c3         1 GS2       0.094300
      2 N1          -7.0150     1.2250    -2.1090 ns         1 GS2      -0.482900
      3 C2          -6.1160     1.0700    -1.0810 c          1 GS2       0.625700
      4 O1          -5.6530     2.0570    -0.5220 o          1 GS2      -0.634100
      5 C3          -5.7590    -0.3450    -0.6690 ca         1 GS2      -0.262600
      6 C4          -6.6100    -1.4430    -0.9600 ca         1 GS2       0.218000
      7 F1          -7.7920    -1.2790    -1.5950 f          1 GS2      -0.180000
      8 C5          -6.2790    -2.7450    -0.5650 ca         1 GS2      -0.194000
      9 C6          -5.0970    -2.9910     0.1390 ca         1 GS2      -0.042000
     10 C7          -4.2450    -1.9220     0.4380 ca         1 GS2      -0.159000
     11 C8          -4.5530    -0.6110     0.0280 ca         1 GS2       0.390000
     12 N2          -3.6820     0.4330     0.3290 nu         1 GS2      -0.941900
     13 C9          -2.3200     0.5670     0.5330 ca         1 GS2       0.469900
     14 N3          -1.5090    -0.4860     0.3380 nb         1 GS2      -0.340000
     15 C10         -0.1930    -0.2660     0.5170 ca         1 GS2       0.433900
     16 N4           0.5890    -1.3940     0.3390 nu         1 GS2      -0.922900
     17 C11          1.9650    -1.6860     0.3550 ca         1 GS2       0.318000
     18 C12          2.9470    -0.6930     0.1210 ca         1 GS2      -0.115000
     19 C13          4.3030    -1.0650     0.1450 ca         1 GS2      -0.075000
     20 N5           5.5020    -0.2910    -0.0480 n          1 GS2      -0.096600
     21 C14          6.5900    -1.1730     0.0770 cc         1 GS2      -0.141400
     22 C15          6.1200    -2.4420     0.3370 cd         1 GS2      -0.203200
     23 C16          4.6720    -2.3760     0.3800 ca         1 GS2      -0.100800
     24 C17          3.7360    -3.3900     0.5970 ca         1 GS2      -0.132000
     25 C18          2.3610    -3.0420     0.5790 ca         1 GS2       0.070100
     26 O2           1.3700    -3.9970     0.7750 os         1 GS2      -0.363100
     27 C19          1.6720    -5.3850     1.0100 c3         1 GS2       0.155900
     28 C20          5.5900     1.1050    -0.3300 c          1 GS2       0.613100
     29 O3           4.5830     1.7930    -0.4830 o          1 GS2      -0.516100
     30 C21          7.0230     1.7280    -0.4380 c3         1 GS2       0.088800
     31 N6           7.1740     3.2180    -0.5770 n3         1 GS2      -0.695600
     32 C22          6.7210     3.9690     0.6190 c3         1 GS2       0.148100
     33 C23          8.5390     3.6120    -0.9960 c3         1 GS2       0.148100
     34 N7           0.3980     0.8940     0.8800 nb         1 GS2      -0.269000
     35 C24         -0.4280     1.9370     1.0560 ca         1 GS2       0.180500
     36 N8          -0.1800     3.2550     1.4050 na         1 GS2      -0.315400
     37 C25         -1.3750     4.0090     1.4670 cc         1 GS2      -0.189100
     38 C26         -2.3660     3.1000     1.1430 cd         1 GS2      -0.189200
     39 C27         -1.7800     1.8050     0.8860 ca         1 GS2      -0.286800
     40 H1          -8.1860     2.3520    -3.4440 h1         1 GS2       0.043367
     41 H1A         -7.9750     3.0770    -1.8210 h1         1 GS2       0.043367
     42 H1B         -6.6200     3.0950    -2.9940 h1         1 GS2       0.043367
     43 HN1         -7.3840     0.3760    -2.5210 hn         1 GS2       0.326500
     44 H5          -6.9540    -3.5660    -0.7950 ha         1 GS2       0.136000
     45 H6          -4.8470    -4.0000     0.4610 ha         1 GS2       0.119000
     46 H7          -3.3450    -2.1220     1.0080 ha         1 GS2       0.157000
     47 HN2         -4.1400     1.3420     0.2130 hn         1 GS2       0.541000
     48 HN4          0.0270    -2.2440     0.3090 hn         1 GS2       0.525000
     49 H12          2.6560     0.3260    -0.0900 ha         1 GS2       0.182000
     50 H14          7.6030    -0.8030    -0.0420 h4         1 GS2       0.211000
     51 H15          6.7320    -3.3310     0.4780 ha         1 GS2       0.204000
     52 H17          4.0770    -4.4070     0.7680 ha         1 GS2       0.121000
     53 H19          2.2730    -5.5050     1.9200 h1         1 GS2       0.039700
     54 H19A         0.7450    -5.9590     1.1380 h1         1 GS2       0.039700
     55 H19B         2.2230    -5.8140     0.1640 h1         1 GS2       0.039700
     56 H21          7.5800     1.3940     0.4480 h1         1 GS2       0.055200
     57 H21A         7.4860     1.2350    -1.3030 h1         1 GS2       0.055200
     58 H22          7.3380     3.7200     1.4940 h1         1 GS2       0.035700
     59 H22A         6.7940     5.0510     0.4470 h1         1 GS2       0.035700
     60 H22B         5.6760     3.7400     0.8620 h1         1 GS2       0.035700
     61 H23          8.8190     3.1110    -1.9320 h1         1 GS2       0.035700
     62 H23A         8.5970     4.6960    -1.1640 h1         1 GS2       0.035700
     63 H23B         9.2780     3.3440    -0.2280 h1         1 GS2       0.035700
     64 HN8          0.7500     3.6180     1.5890 hn         1 GS2       0.366000
     65 H25         -1.4160     5.0670     1.7220 h4         1 GS2       0.217000
     66 H26         -3.4280     3.3410     1.0970 ha         1 GS2       0.213000
@<TRIPOS>BOND
     1     1     2 1   
     2     1    40 1   
     3     1    41 1   
     4     1    42 1   
     5     2     3 1   
     6     2    43 1   
     7     3     4 2   
     8     3     5 1   
     9     5     6 ar  
    10     5    11 ar  
    11     6     7 1   
    12     6     8 ar  
    13     8     9 ar  
    14     8    44 1   
    15     9    10 ar  
    16     9    45 1   
    17    10    11 ar  
    18    10    46 1   
    19    11    12 1   
    20    12    13 1   
    21    12    47 1   
    22    13    14 ar  
    23    13    39 ar  
    24    14    15 ar  
    25    15    16 1   
    26    15    34 ar  
    27    16    17 1   
    28    16    48 1   
    29    17    18 ar  
    30    17    25 ar  
    31    18    19 ar  
    32    18    49 1   
    33    19    20 1   
    34    19    23 ar  
    35    20    21 1   
    36    20    28 1   
    37    21    22 2   
    38    21    50 1   
    39    22    23 1   
    40    22    51 1   
    41    23    24 ar  
    42    24    25 ar  
    43    24    52 1   
    44    25    26 1   
    45    26    27 1   
    46    27    53 1   
    47    27    54 1   
    48    27    55 1   
    49    28    29 2   
    50    28    30 1   
    51    30    31 1   
    52    30    56 1   
    53    30    57 1   
    54    31    32 1   
    55    31    33 1   
    56    32    58 1   
    57    32    59 1   
    58    32    60 1   
    59    33    61 1   
    60    33    62 1   
    61    33    63 1   
    62    34    35 ar  
    63    35    36 1   
    64    35    39 ar  
    65    36    37 1   
    66    36    64 1   
    67    37    38 2   
    68    37    65 1   
    69    38    39 1   
    70    38    66 1   
@<TRIPOS>SUBSTRUCTURE
     1 GS2         1 TEMP              0 ****  ****    0 ROOT
