@<TRIPOS>MOLECULE
GS3
   69    73     1     0     0
SMALL
No Charge or Current Charge


@<TRIPOS>ATOM
      1 C1          -1.9280     3.3810    -1.2930 c3         1 GS3       0.154900
      2 O1          -1.2590     2.2090    -0.7920 os         1 GS3      -0.360100
      3 C2          -1.9480     1.1020    -0.3130 ca         1 GS3       0.116100
      4 C3          -3.3610     1.0640    -0.2900 ca         1 GS3      -0.209000
      5 C4          -4.0400    -0.0600     0.2070 ca         1 GS3       0.299000
      6 C5          -3.2950    -1.1500     0.6910 ca         1 GS3      -0.180000
      7 C6          -1.8890    -1.1240     0.6730 ca         1 GS3      -0.079000
      8 C7          -1.1980    -0.0080     0.1600 ca         1 GS3       0.262000
      9 N1           0.2090     0.0660     0.1320 nu         1 GS3      -0.918900
     10 C8           1.2550    -0.8430     0.1540 ca         1 GS3       0.441900
     11 N2           2.4700    -0.2700     0.1960 nb         1 GS3      -0.334000
     12 C9           3.5200    -1.1060     0.2180 ca         1 GS3       0.470900
     13 N3           4.8060    -0.5880     0.2200 nu         1 GS3      -0.940900
     14 C10          5.3550     0.6900     0.3790 ca         1 GS3       0.375000
     15 C11          4.6640     1.6800     1.1060 ca         1 GS3      -0.157000
     16 C12          5.1740     2.9810     1.2210 ca         1 GS3      -0.045000
     17 C13          6.3900     3.3010     0.6050 ca         1 GS3      -0.190000
     18 C14          7.0970     2.3180    -0.0990 ca         1 GS3       0.236000
     19 F1           8.2890     2.6480    -0.6450 f          1 GS3      -0.169000
     20 C15          6.6030     1.0030    -0.1990 ca         1 GS3      -0.269600
     21 C16          7.4120    -0.0090    -0.9360 c          1 GS3       0.620700
     22 O2           7.8190     0.1690    -2.0700 o          1 GS3      -0.563100
     23 N4           7.6530    -1.1820    -0.3110 nt         1 GS3      -0.612000
     24 C17          3.3160    -2.4880     0.1680 ca         1 GS3      -0.296800
     25 C18          4.2350    -3.5920     0.1590 cc         1 GS3      -0.194200
     26 C19          3.4640    -4.7410     0.1030 cd         1 GS3      -0.185100
     27 N5           2.0960    -4.3680     0.0770 na         1 GS3      -0.320400
     28 C20          2.0410    -2.9850     0.1190 ca         1 GS3       0.188500
     29 N6           0.9790    -2.1630     0.1110 nb         1 GS3      -0.283000
     30 N7          -5.4520    -0.0720     0.2180 nh         1 GS3      -0.781400
     31 C21         -6.2200    -1.3570     0.1530 c6         1 GS3       0.193800
     32 C22         -7.6840    -1.1560    -0.3570 c6         1 GS3       0.168300
     33 N8          -8.4370    -0.1230     0.4230 n3         1 GS3      -0.734600
     34 C23         -7.6730     1.1690     0.4140 c6         1 GS3       0.168300
     35 C24         -6.2040     1.0110     0.9300 c6         1 GS3       0.193800
     36 C25         -9.8790    -0.0170     0.0600 c3         1 GS3       0.191500
     37 C26        -10.6840     0.8060     1.0890 c3         1 GS3      -0.105600
     38 C27        -10.1430     0.4940    -1.3790 c3         1 GS3      -0.105600
     39 H1          -1.1940     4.1300    -1.6150 h1         1 GS3       0.040700
     40 H1A         -2.5600     3.1320    -2.1550 h1         1 GS3       0.040700
     41 H1B         -2.5550     3.8350    -0.5140 h1         1 GS3       0.040700
     42 H3          -3.9470     1.8950    -0.6670 ha         1 GS3       0.120000
     43 H5          -3.7980    -2.0200     1.1010 ha         1 GS3       0.115000
     44 H6          -1.3480    -1.9700     1.0810 ha         1 GS3       0.146000
     45 HN1          0.5370     1.0100    -0.0690 hn         1 GS3       0.524000
     46 HN3          5.4730    -1.2830    -0.1000 hn         1 GS3       0.514000
     47 H11          3.7270     1.4460     1.5970 ha         1 GS3       0.156000
     48 H12          4.6280     3.7370     1.7820 ha         1 GS3       0.119000
     49 H13          6.7960     4.3070     0.6840 ha         1 GS3       0.137000
     50 HN4          7.4220    -1.2870     0.6670 hn         1 GS3       0.312000
     51 HN4A         8.2180    -1.8770    -0.7780 hn         1 GS3       0.312000
     52 H18          5.3230    -3.5660     0.1990 ha         1 GS3       0.201000
     53 H19          3.7820    -5.7830     0.0820 h4         1 GS3       0.217000
     54 HN5          1.2950    -4.9910     0.0350 hn         1 GS3       0.361000
     55 H21         -5.7160    -2.0660    -0.5200 h1         1 GS3       0.042450
     56 H21A        -6.2560    -1.8180     1.1510 h1         1 GS3       0.042450
     57 H22         -7.6350    -0.8720    -1.4180 h1         1 GS3       0.038200
     58 H22A        -8.2050    -2.1240    -0.3090 h1         1 GS3       0.038200
     59 H23         -7.6320     1.5780    -0.6060 h1         1 GS3       0.038200
     60 H23A        -8.1700     1.9230     1.0410 h1         1 GS3       0.038200
     61 H24         -6.2350     0.7870     2.0060 h1         1 GS3       0.042450
     62 H24A        -5.6950     1.9780     0.8180 h1         1 GS3       0.042450
     63 H25        -10.3000    -1.0320     0.1040 h1         1 GS3       0.052700
     64 H26        -11.7600     0.7040     0.9010 hc         1 GS3       0.037200
     65 H26A       -10.4850     0.4510     2.1080 hc         1 GS3       0.037200
     66 H26B       -10.4340     1.8720     1.0370 hc         1 GS3       0.037200
     67 H27         -9.6560    -0.1420    -2.1260 hc         1 GS3       0.037200
     68 H27A       -11.2190     0.4850    -1.5920 hc         1 GS3       0.037200
     69 H27B        -9.7850     1.5220    -1.5090 hc         1 GS3       0.037200
@<TRIPOS>BOND
     1     1     2 1   
     2     1    39 1   
     3     1    40 1   
     4     1    41 1   
     5     2     3 1   
     6     3     4 ar  
     7     3     8 ar  
     8     4     5 ar  
     9     4    42 1   
    10     5     6 ar  
    11     5    30 1   
    12     6     7 ar  
    13     6    43 1   
    14     7     8 ar  
    15     7    44 1   
    16     8     9 1   
    17     9    10 1   
    18     9    45 1   
    19    10    11 ar  
    20    10    29 ar  
    21    11    12 ar  
    22    12    13 1   
    23    12    24 ar  
    24    13    14 1   
    25    13    46 1   
    26    14    15 ar  
    27    14    20 ar  
    28    15    16 ar  
    29    15    47 1   
    30    16    17 ar  
    31    16    48 1   
    32    17    18 ar  
    33    17    49 1   
    34    18    19 1   
    35    18    20 ar  
    36    20    21 1   
    37    21    22 2   
    38    21    23 1   
    39    23    50 1   
    40    23    51 1   
    41    24    25 1   
    42    24    28 ar  
    43    25    26 2   
    44    25    52 1   
    45    26    27 1   
    46    26    53 1   
    47    27    28 1   
    48    27    54 1   
    49    28    29 ar  
    50    30    31 1   
    51    30    35 1   
    52    31    32 1   
    53    31    55 1   
    54    31    56 1   
    55    32    33 1   
    56    32    57 1   
    57    32    58 1   
    58    33    34 1   
    59    33    36 1   
    60    34    35 1   
    61    34    59 1   
    62    34    60 1   
    63    35    61 1   
    64    35    62 1   
    65    36    37 1   
    66    36    38 1   
    67    36    63 1   
    68    37    64 1   
    69    37    65 1   
    70    37    66 1   
    71    38    67 1   
    72    38    68 1   
    73    38    69 1   
@<TRIPOS>SUBSTRUCTURE
     1 GS3         1 TEMP              0 ****  ****    0 ROOT
