@<TRIPOS>MOLECULE
GS3
   69    73     1     0     0
SMALL
abcg2


@<TRIPOS>ATOM
      1 C1          -1.8470     3.5040    -0.6930 c3         1 GS3       0.154900
      2 O1          -1.1940     2.2800    -0.4210 os         1 GS3      -0.360100
      3 C2          -1.9370     1.1830    -0.1640 ca         1 GS3       0.116100
      4 C3          -3.3170     1.1570    -0.2200 ca         1 GS3      -0.209000
      5 C4          -4.0370    -0.0170     0.0610 ca         1 GS3       0.299000
      6 C5          -3.3090    -1.1520     0.3990 ca         1 GS3      -0.180000
      7 C6          -1.9160    -1.1290     0.4440 ca         1 GS3      -0.079000
      8 C7          -1.2000     0.0240     0.1670 ca         1 GS3       0.262000
      9 N1           0.1870     0.1520     0.2140 nu         1 GS3      -0.918900
     10 C8           1.1630    -0.7970     0.1880 ca         1 GS3       0.441900
     11 N2           2.4060    -0.2720     0.2060 nb         1 GS3      -0.334000
     12 C9           3.4410    -1.0850     0.1770 ca         1 GS3       0.470900
     13 N3           4.7170    -0.6040     0.1800 nu         1 GS3      -0.940900
     14 C10          5.1990     0.6980     0.2240 ca         1 GS3       0.375000
     15 C11          4.4310     1.7920     0.6320 ca         1 GS3      -0.157000
     16 C12          4.9890     3.0590     0.6700 ca         1 GS3      -0.045000
     17 C13          6.3090     3.2870     0.3120 ca         1 GS3      -0.190000
     18 C14          7.0470     2.1980    -0.0970 ca         1 GS3       0.236000
     19 F1           8.3300     2.3770    -0.4430 f          1 GS3      -0.169000
     20 C15          6.5390     0.9120    -0.1520 ca         1 GS3      -0.269600
     21 C16          7.4090    -0.1810    -0.7040 c          1 GS3       0.620700
     22 O2           7.7950    -0.1640    -1.8580 o          1 GS3      -0.563100
     23 N4           7.6670    -1.1800     0.1600 nt         1 GS3      -0.612000
     24 C17          3.2480    -2.4790     0.1270 ca         1 GS3      -0.296800
     25 C18          4.0520    -3.6610     0.0790 cc         1 GS3      -0.194200
     26 C19          3.1810    -4.7070     0.0360 cd         1 GS3      -0.185100
     27 N5           1.8890    -4.2310     0.0580 na         1 GS3      -0.320400
     28 C20          1.9090    -2.8810     0.1120 ca         1 GS3       0.188500
     29 N6           0.8450    -2.0770     0.1440 nb         1 GS3      -0.283000
     30 N7          -5.4320    -0.0100    -0.0470 nh         1 GS3      -0.781400
     31 C21         -6.1140    -1.2790     0.0930 c6         1 GS3       0.193800
     32 C22         -7.5530    -1.1630    -0.3770 c6         1 GS3       0.168300
     33 N8          -8.2500    -0.1300     0.3560 n3         1 GS3      -0.734600
     34 C23         -7.5820     1.1400     0.1700 c6         1 GS3       0.168300
     35 C24         -6.1440     1.0560     0.6460 c6         1 GS3       0.193800
     36 C25         -9.6930    -0.1220     0.1230 c3         1 GS3       0.191500
     37 C26        -10.4190     0.6770     1.1990 c3         1 GS3      -0.105600
     38 C27        -10.1200     0.3460    -1.2710 c3         1 GS3      -0.105600
     39 H1          -1.0650     4.2460    -0.8320 h1         1 GS3       0.040700
     40 H1A         -2.4470     3.4510    -1.6050 h1         1 GS3       0.040700
     41 H1B         -2.4870     3.8160     0.1360 h1         1 GS3       0.040700
     42 H3          -3.8530     2.0470    -0.5200 ha         1 GS3       0.120000
     43 H5          -3.8040    -2.0800     0.6490 ha         1 GS3       0.115000
     44 H6          -1.3900    -2.0320     0.7100 ha         1 GS3       0.146000
     45 HN1          0.5430     1.0950     0.1840 hn         1 GS3       0.524000
     46 HN3          5.4240    -1.3210     0.1120 hn         1 GS3       0.514000
     47 H11          3.4010     1.6520     0.9130 ha         1 GS3       0.156000
     48 H12          4.3780     3.8910     0.9940 ha         1 GS3       0.119000
     49 H13          6.7500     4.2740     0.3500 ha         1 GS3       0.137000
     50 HN4          7.5390    -1.0510     1.1510 hn         1 GS3       0.312000
     51 HN4A         8.2780    -1.9340    -0.1190 hn         1 GS3       0.312000
     52 H18          5.1280    -3.7390     0.0750 ha         1 GS3       0.201000
     53 H19          3.3720    -5.7660    -0.0070 h4         1 GS3       0.217000
     54 HN5          1.0600    -4.8010     0.0290 hn         1 GS3       0.361000
     55 H21         -5.6140    -2.0300    -0.5200 h1         1 GS3       0.042450
     56 H21A        -6.1010    -1.6390     1.1330 h1         1 GS3       0.042450
     57 H22         -7.5530    -0.9900    -1.4660 h1         1 GS3       0.038200
     58 H22A        -8.0470    -2.1230    -0.2040 h1         1 GS3       0.038200
     59 H23         -7.5840     1.4700    -0.8820 h1         1 GS3       0.038200
     60 H23A        -8.0830     1.9160     0.7500 h1         1 GS3       0.038200
     61 H24         -6.1270     0.8910     1.7340 h1         1 GS3       0.042450
     62 H24A        -5.6660     2.0150     0.4560 h1         1 GS3       0.042450
     63 H25        -10.0050    -1.1660     0.2330 h1         1 GS3       0.052700
     64 H26        -11.4950     0.5170     1.1220 hc         1 GS3       0.037200
     65 H26A       -10.1010     0.3700     2.1960 hc         1 GS3       0.037200
     66 H26B       -10.2480     1.7510     1.1030 hc         1 GS3       0.037200
     67 H27         -9.6170    -0.2070    -2.0660 hc         1 GS3       0.037200
     68 H27A       -11.1930     0.2010    -1.4020 hc         1 GS3       0.037200
     69 H27B        -9.9150     1.4070    -1.4200 hc         1 GS3       0.037200
@<TRIPOS>BOND
     1     1     2 1   
     2     1    39 1   
     3     1    40 1   
     4     1    41 1   
     5     2     3 1   
     6     3     4 ar  
     7     3     8 ar  
     8     4     5 ar  
     9     4    42 1   
    10     5     6 ar  
    11     5    30 1   
    12     6     7 ar  
    13     6    43 1   
    14     7     8 ar  
    15     7    44 1   
    16     8     9 1   
    17     9    10 1   
    18     9    45 1   
    19    10    11 ar  
    20    10    29 ar  
    21    11    12 ar  
    22    12    13 1   
    23    12    24 ar  
    24    13    14 1   
    25    13    46 1   
    26    14    15 ar  
    27    14    20 ar  
    28    15    16 ar  
    29    15    47 1   
    30    16    17 ar  
    31    16    48 1   
    32    17    18 ar  
    33    17    49 1   
    34    18    19 1   
    35    18    20 ar  
    36    20    21 1   
    37    21    22 2   
    38    21    23 1   
    39    23    50 1   
    40    23    51 1   
    41    24    25 1   
    42    24    28 ar  
    43    25    26 2   
    44    25    52 1   
    45    26    27 1   
    46    26    53 1   
    47    27    28 1   
    48    27    54 1   
    49    28    29 ar  
    50    30    31 1   
    51    30    35 1   
    52    31    32 1   
    53    31    55 1   
    54    31    56 1   
    55    32    33 1   
    56    32    57 1   
    57    32    58 1   
    58    33    34 1   
    59    33    36 1   
    60    34    35 1   
    61    34    59 1   
    62    34    60 1   
    63    35    61 1   
    64    35    62 1   
    65    36    37 1   
    66    36    38 1   
    67    36    63 1   
    68    37    64 1   
    69    37    65 1   
    70    37    66 1   
    71    38    67 1   
    72    38    68 1   
    73    38    69 1   
@<TRIPOS>SUBSTRUCTURE
     1 GS3         1 TEMP              0 ****  ****    0 ROOT
