@<TRIPOS>MOLECULE
GS5
   52    55     1     0     0
SMALL
abcg2


@<TRIPOS>ATOM
      1 CL          14.1440     7.5890    24.6370 cl         1 GS5      -0.206000
      2 C13         12.4090     7.4360    24.8160 ca         1 GS5       0.108000
      3 C14         11.9120     6.4970    25.7320 ca         1 GS5      -0.076000
      4 C11         10.5480     6.3480    25.8990 ca         1 GS5      -0.085000
      5 C6           9.6920     7.1440    25.1380 ca         1 GS5      -0.135000
      6 C5          10.1940     8.0930    24.2150 ca         1 GS5      -0.093800
      7 C10         11.5810     8.2360    24.0580 ca         1 GS5      -0.044000
      8 C2           9.1440     8.7980    23.5480 cc         1 GS5      -0.011200
      9 C1           7.9160     8.3910    23.9620 cd         1 GS5      -0.304500
     10 S4           6.3820     8.9350    23.3090 sy         1 GS5       1.227200
     11 O8           6.5830    10.2510    22.7610 o          1 GS5      -0.540500
     12 O9           5.3950     8.7070    24.3360 o          1 GS5      -0.540500
     13 N7           5.9890     7.9810    22.0460 n7         1 GS5      -0.882300
     14 C12          5.6300     6.5830    22.2150 c5         1 GS5       0.150500
     15 C15          6.7190     5.6090    21.7420 c          1 GS5       0.533000
     16 O19          7.9290     5.7870    21.8230 o          1 GS5      -0.556000
     17 C16          4.4070     6.1490    21.4060 c5         1 GS5      -0.091400
     18 C20          4.6360     4.6480    21.2030 c5         1 GS5       0.104000
     19 N18          6.0980     4.5290    21.2340 n          1 GS5      -0.396800
     20 C21          6.8350     3.3720    20.7630 c3         1 GS5       0.049700
     21 C23          6.1110     2.0670    21.1040 c3         1 GS5      -0.101100
     22 C22          7.0720     3.4840    19.2450 c          1 GS5       0.591100
     23 O25          6.3400     4.1990    18.5590 o          1 GS5      -0.604100
     24 N24          8.0730     2.7500    18.7110 n          1 GS5      -0.414800
     25 C26          8.2880     2.7360    17.2640 c6         1 GS5       0.064000
     26 C28          9.7410     3.0570    16.9540 c6         1 GS5       0.134100
     27 O30         10.6240     2.1640    17.6310 os         1 GS5      -0.451000
     28 C29         10.4350     2.2330    19.0410 c6         1 GS5       0.134100
     29 C27          9.0050     1.8840    19.4310 c6         1 GS5       0.064000
     30 S3           7.9540     7.1470    25.1790 ss         1 GS5       0.164400
     31 H14         12.6000     5.8910    26.3040 ha         1 GS5       0.131000
     32 H10         11.9840     8.9540    23.3580 ha         1 GS5       0.136000
     33 H11         10.1600     5.6250    26.6040 ha         1 GS5       0.128000
     34 H2           9.3020     9.5580    22.7970 ha         1 GS5       0.220000
     35 H7           6.5210     8.2050    21.2110 hn         1 GS5       0.501000
     36 H12          5.4620     6.3970    23.2770 h1         1 GS5       0.093700
     37 H161         4.4210     6.6600    20.4420 hc         1 GS5       0.076200
     38 H162         3.4680     6.3700    21.9090 hc         1 GS5       0.076200
     39 H201         4.2490     4.2920    20.2520 h1         1 GS5       0.059700
     40 H202         4.1910     4.0590    22.0090 h1         1 GS5       0.059700
     41 H21          7.7910     3.4080    21.2810 h1         1 GS5       0.087700
     42 H231         6.7190     1.2110    20.8160 hc         1 GS5       0.051367
     43 H232         5.1600     1.9970    20.5770 hc         1 GS5       0.051367
     44 H233         5.9250     2.0130    22.1760 hc         1 GS5       0.051367
     45 H261         7.6290     3.4660    16.8040 h1         1 GS5       0.063450
     46 H262         8.0390     1.7410    16.8810 h1         1 GS5       0.063450
     47 H271         8.7940     0.8430    19.1700 h1         1 GS5       0.063450
     48 H272         8.8950     1.9930    20.5040 h1         1 GS5       0.063450
     49 H281         9.9640     4.0900    17.2500 h1         1 GS5       0.058950
     50 H282         9.9330     2.9430    15.8880 h1         1 GS5       0.058950
     51 H291        11.1270     1.5210    19.4890 h1         1 GS5       0.058950
     52 H292        10.6770     3.2420    19.3980 h1         1 GS5       0.058950
@<TRIPOS>BOND
     1     1     2 1   
     2     2     3 ar  
     3     2     7 ar  
     4     3     4 ar  
     5     3    31 1   
     6     4     5 ar  
     7     4    33 1   
     8     5     6 ar  
     9     5    30 1   
    10     6     7 ar  
    11     6     8 1   
    12     7    32 1   
    13     8     9 2   
    14     8    34 1   
    15     9    10 1   
    16     9    30 1   
    17    10    11 2   
    18    10    12 2   
    19    10    13 1   
    20    13    14 1   
    21    13    35 1   
    22    14    15 1   
    23    14    17 1   
    24    14    36 1   
    25    15    16 2   
    26    15    19 1   
    27    17    18 1   
    28    17    37 1   
    29    17    38 1   
    30    18    19 1   
    31    18    39 1   
    32    18    40 1   
    33    19    20 1   
    34    20    21 1   
    35    20    22 1   
    36    20    41 1   
    37    21    42 1   
    38    21    43 1   
    39    21    44 1   
    40    22    23 2   
    41    22    24 1   
    42    24    25 1   
    43    24    29 1   
    44    25    26 1   
    45    25    45 1   
    46    25    46 1   
    47    26    27 1   
    48    26    49 1   
    49    26    50 1   
    50    27    28 1   
    51    28    29 1   
    52    28    51 1   
    53    28    52 1   
    54    29    47 1   
    55    29    48 1   
@<TRIPOS>SUBSTRUCTURE
     1 GS5         1 TEMP              0 ****  ****    0 ROOT
