@<TRIPOS>MOLECULE
GS5
   52    55     1     0     0
SMALL
No Charge or Current Charge


@<TRIPOS>ATOM
      1 Cl          12.7790     5.4260    26.6240 cl         1 GS5      -0.206000
      2 C13         11.2900     6.3130    26.3190 ca         1 GS5       0.108000
      3 C14         10.4380     6.6430    27.3940 ca         1 GS5      -0.076000
      4 C11          9.2430     7.3520    27.1570 ca         1 GS5      -0.085000
      5 C6           8.9250     7.7160    25.8390 ca         1 GS5      -0.135000
      6 C5           9.7600     7.3940    24.7860 ca         1 GS5      -0.093800
      7 C10         10.9540     6.6870    25.0030 ca         1 GS5      -0.044000
      8 C2           9.2590     7.8490    23.5110 cc         1 GS5      -0.011200
      9 C1           8.0350     8.4890    23.6500 cd         1 GS5      -0.304500
     10 S4           7.0780     9.1660    22.3190 sy         1 GS5       1.227200
     11 O8           7.8630     9.1880    21.0840 o          1 GS5      -0.540500
     12 O9           6.3060    10.3170    22.7950 o          1 GS5      -0.540500
     13 N7           5.9670     7.9290    22.1350 n7         1 GS5      -0.882300
     14 C12          6.2660     6.4930    22.4800 c5         1 GS5       0.150500
     15 C15          7.2550     5.7080    21.5630 c          1 GS5       0.533000
     16 O19          8.2670     6.0860    20.9860 o          1 GS5      -0.556000
     17 C16          4.9370     5.7130    22.2940 c5         1 GS5      -0.091400
     18 C20          5.4280     4.2410    22.1680 c5         1 GS5       0.104000
     19 N18          6.7390     4.4090    21.5010 n          1 GS5      -0.396800
     20 C21          7.3960     3.3890    20.6280 c3         1 GS5       0.049700
     21 C23          6.9500     1.9430    20.9680 c3         1 GS5      -0.101100
     22 C22          7.2260     3.6800    19.0990 c          1 GS5       0.591100
     23 O25          6.3990     4.4960    18.7040 o          1 GS5      -0.604100
     24 N24          7.9720     2.9210    18.1560 n          1 GS5      -0.414800
     25 C26          7.7510     3.0650    16.6840 c6         1 GS5       0.064000
     26 C28          8.9610     3.7520    15.9990 c6         1 GS5       0.134100
     27 O30         10.1780     3.0330    16.3110 os         1 GS5      -0.451000
     28 C29         10.4510     2.9630    17.7300 c6         1 GS5       0.134100
     29 C27          9.2780     2.2590    18.4640 c6         1 GS5       0.064000
     30 S3           7.4720     8.6080    25.3390 ss         1 GS5       0.164400
     31 H14         10.7040     6.3500    28.4060 ha         1 GS5       0.131000
     32 H10         11.6090     6.4320    24.1740 ha         1 GS5       0.136000
     33 H11          8.5800     7.6100    27.9810 ha         1 GS5       0.128000
     34 H2           9.7590     7.7000    22.5550 ha         1 GS5       0.220000
     35 H7           5.7620     8.0260    21.1410 hn         1 GS5       0.501000
     36 H12          6.6150     6.3710    23.5150 h1         1 GS5       0.093700
     37 H161         4.4210     6.0150    21.3750 hc         1 GS5       0.076200
     38 H162         4.2380     5.8570    23.1250 hc         1 GS5       0.076200
     39 H201         4.7290     3.6320    21.5810 h1         1 GS5       0.059700
     40 H202         5.5560     3.7740    23.1540 h1         1 GS5       0.059700
     41 H21          8.4690     3.4590    20.8400 h1         1 GS5       0.087700
     42 H231         7.5410     1.2020    20.4180 hc         1 GS5       0.051367
     43 H232         5.8960     1.7860    20.7100 hc         1 GS5       0.051367
     44 H233         7.0790     1.7420    22.0380 hc         1 GS5       0.051367
     45 H261         6.8390     3.6380    16.4700 h1         1 GS5       0.063450
     46 H262         7.6110     2.0670    16.2460 h1         1 GS5       0.063450
     47 H271         9.2300     1.2110    18.1350 h1         1 GS5       0.063450
     48 H272         9.4950     2.2420    19.5390 h1         1 GS5       0.063450
     49 H281         9.0520     4.7920    16.3460 h1         1 GS5       0.058950
     50 H282         8.8190     3.7650    14.9090 h1         1 GS5       0.058950
     51 H291        11.3840     2.4050    17.8900 h1         1 GS5       0.058950
     52 H292        10.5870     3.9800    18.1250 h1         1 GS5       0.058950
@<TRIPOS>BOND
     1     1     2 1   
     2     2     3 ar  
     3     2     7 ar  
     4     3     4 ar  
     5     3    31 1   
     6     4     5 ar  
     7     4    33 1   
     8     5     6 ar  
     9     5    30 1   
    10     6     7 ar  
    11     6     8 1   
    12     7    32 1   
    13     8     9 2   
    14     8    34 1   
    15     9    10 1   
    16     9    30 1   
    17    10    11 2   
    18    10    12 2   
    19    10    13 1   
    20    13    14 1   
    21    13    35 1   
    22    14    15 1   
    23    14    17 1   
    24    14    36 1   
    25    15    16 2   
    26    15    19 1   
    27    17    18 1   
    28    17    37 1   
    29    17    38 1   
    30    18    19 1   
    31    18    39 1   
    32    18    40 1   
    33    19    20 1   
    34    20    21 1   
    35    20    22 1   
    36    20    41 1   
    37    21    42 1   
    38    21    43 1   
    39    21    44 1   
    40    22    23 2   
    41    22    24 1   
    42    24    25 1   
    43    24    29 1   
    44    25    26 1   
    45    25    45 1   
    46    25    46 1   
    47    26    27 1   
    48    26    49 1   
    49    26    50 1   
    50    27    28 1   
    51    28    29 1   
    52    28    51 1   
    53    28    52 1   
    54    29    47 1   
    55    29    48 1   
@<TRIPOS>SUBSTRUCTURE
     1 GS5         1 TEMP              0 ****  ****    0 ROOT
