@<TRIPOS>MOLECULE
GS6
   52    55     1     0     0
SMALL
abcg2


@<TRIPOS>ATOM
      1 CL          13.9930     7.1460    25.4840 cl         1 GS6      -0.204000
      2 C1          12.2500     7.2780    25.4280 ca         1 GS6       0.147000
      3 C2          11.6720     8.0680    24.4530 ca         1 GS6      -0.084000
      4 C3          10.2800     8.1450    24.4390 ca         1 GS6      -0.129000
      5 C4           9.4850     7.4510    25.3820 ca         1 GS6      -0.103800
      6 C5           8.0890     7.6850    25.1800 cc         1 GS6      -0.023200
      7 C9          10.1170     6.6620    26.3550 ca         1 GS6      -0.047000
      8 C10         11.4940     6.5750    26.3770 ca         1 GS6      -0.118000
      9 C6           7.8590     8.5190    24.1330 cd         1 GS6      -0.308500
     10 S1           6.2830     8.9610    23.5130 sy         1 GS6       1.226200
     11 O2           5.3370     8.7180    24.5720 o          1 GS6      -0.539500
     12 O1           6.4000    10.2690    22.9160 o          1 GS6      -0.539500
     13 N1           5.9110     7.9490    22.2890 n7         1 GS6      -0.879300
     14 C12          5.6980     6.5280    22.5180 c5         1 GS6       0.150500
     15 C13          4.4470     5.9590    21.8500 c5         1 GS6      -0.091400
     16 C14          4.8010     4.4810    21.6500 c5         1 GS6       0.103000
     17 C15          6.8220     5.6510    21.9500 c          1 GS6       0.532000
     18 O3           8.0110     5.9480    21.9030 o          1 GS6      -0.557000
     19 N2           6.2610     4.5080    21.5180 n          1 GS6      -0.395800
     20 C16          7.0530     3.4280    20.9630 c3         1 GS6       0.048700
     21 C17          6.5370     2.0580    21.4100 c3         1 GS6      -0.101100
     22 C18          7.0680     3.5270    19.4260 c          1 GS6       0.591100
     23 O4           6.1590     4.1160    18.8400 o          1 GS6      -0.605100
     24 N3           8.0810     2.9210    18.7670 n          1 GS6      -0.414800
     25 C19          8.1140     2.9180    17.3050 c6         1 GS6       0.063500
     26 C20          9.4440     3.4700    16.8200 c6         1 GS6       0.133600
     27 O5          10.5400     2.7470    17.3780 os         1 GS6      -0.452000
     28 C22         10.5170     2.8010    18.8010 c6         1 GS6       0.133600
     29 C23          9.2220     2.2260    19.3590 c6         1 GS6       0.063500
     30 S2           9.3060     9.0740    23.3360 ss         1 GS6       0.186400
     31 H2          12.2770     8.6000    23.7330 ha         1 GS6       0.141000
     32 H10         11.9960     5.9700    27.1190 ha         1 GS6       0.133000
     33 H5           7.3050     7.2510    25.7820 ha         1 GS6       0.217000
     34 H9           9.5240     6.1250    27.0840 ha         1 GS6       0.123000
     35 H1           6.3900     8.1890    21.4270 hn         1 GS6       0.503000
     36 H12          5.6620     6.3540    23.5950 h1         1 GS6       0.086700
     37 H131         4.3100     6.4420    20.8810 hc         1 GS6       0.077200
     38 H132         3.5470     6.1000    22.4450 hc         1 GS6       0.077200
     39 H141         4.3490     4.0620    20.7540 h1         1 GS6       0.060200
     40 H142         4.5070     3.8760    22.5110 h1         1 GS6       0.060200
     41 H16          8.0590     3.5840    21.3470 h1         1 GS6       0.088700
     42 H171         7.1940     1.2690    21.0470 hc         1 GS6       0.051033
     43 H172         5.5360     1.8700    21.0210 hc         1 GS6       0.051033
     44 H173         6.5080     2.0080    22.4990 hc         1 GS6       0.051033
     45 H191         7.2910     3.5210    16.9330 h1         1 GS6       0.063950
     46 H192         7.9890     1.8890    16.9530 h1         1 GS6       0.063950
     47 H231         9.1530     1.1630    19.1090 h1         1 GS6       0.063950
     48 H232         9.2260     2.3190    20.4390 h1         1 GS6       0.063950
     49 H201         9.5270     4.5300    17.0930 h1         1 GS6       0.058950
     50 H202         9.5220     3.3740    15.7380 h1         1 GS6       0.058950
     51 H221        11.3670     2.2190    19.1540 h1         1 GS6       0.058950
     52 H222        10.6310     3.8410    19.1340 h1         1 GS6       0.058950
@<TRIPOS>BOND
     1     1     2 1   
     2     2     3 ar  
     3     2     8 ar  
     4     3     4 ar  
     5     3    31 1   
     6     4     5 ar  
     7     4    30 1   
     8     5     6 1   
     9     5     7 ar  
    10     6     9 2   
    11     6    33 1   
    12     7     8 ar  
    13     7    34 1   
    14     8    32 1   
    15     9    10 1   
    16     9    30 1   
    17    10    11 2   
    18    10    12 2   
    19    10    13 1   
    20    13    14 1   
    21    13    35 1   
    22    14    15 1   
    23    14    17 1   
    24    14    36 1   
    25    15    16 1   
    26    15    37 1   
    27    15    38 1   
    28    16    19 1   
    29    16    39 1   
    30    16    40 1   
    31    17    18 2   
    32    17    19 1   
    33    19    20 1   
    34    20    21 1   
    35    20    22 1   
    36    20    41 1   
    37    21    42 1   
    38    21    43 1   
    39    21    44 1   
    40    22    23 2   
    41    22    24 1   
    42    24    25 1   
    43    24    29 1   
    44    25    26 1   
    45    25    45 1   
    46    25    46 1   
    47    26    27 1   
    48    26    49 1   
    49    26    50 1   
    50    27    28 1   
    51    28    29 1   
    52    28    51 1   
    53    28    52 1   
    54    29    47 1   
    55    29    48 1   
@<TRIPOS>SUBSTRUCTURE
     1 GS6         1 TEMP              0 ****  ****    0 ROOT
