@<TRIPOS>MOLECULE
GS6
   52    55     1     0     0
SMALL
No Charge or Current Charge


@<TRIPOS>ATOM
      1 Cl          12.6720     6.1670    27.9140 cl         1 GS6      -0.204000
      2 C1          11.2410     6.8510    27.1540 ca         1 GS6       0.147000
      3 C2          11.2120     7.0420    25.7590 ca         1 GS6      -0.084000
      4 C3          10.0560     7.5890    25.1780 ca         1 GS6      -0.129000
      5 C4           8.9650     7.9370    25.9520 ca         1 GS6      -0.103800
      6 C5           7.8750     8.4780    25.1730 cc         1 GS6      -0.023200
      7 C9           8.9770     7.7530    27.3440 ca         1 GS6      -0.047000
      8 C10         10.1280     7.2050    27.9450 ca         1 GS6      -0.118000
      9 C6           8.1840     8.4990    23.8210 cd         1 GS6      -0.308500
     10 S1           7.0980     9.0730    22.5400 sy         1 GS6       1.226200
     11 O2           6.2850    10.1790    23.0530 o          1 GS6      -0.539500
     12 O1           7.7880     9.1210    21.2510 o          1 GS6      -0.539500
     13 N1           6.0630     7.7610    22.4730 n7         1 GS6      -0.879300
     14 C12          6.5010     6.3490    22.7630 c5         1 GS6       0.150500
     15 C13          5.2140     5.4830    22.7470 c5         1 GS6      -0.091400
     16 C14          5.7810     4.0470    22.5480 c5         1 GS6       0.103000
     17 C15          7.4090     5.6310    21.7160 c          1 GS6       0.532000
     18 O3           8.3070     6.0750    21.0120 o          1 GS6      -0.557000
     19 N2           6.9760     4.3000    21.7140 n          1 GS6      -0.395800
     20 C16          7.5760     3.3260    20.7520 c3         1 GS6       0.048700
     21 C17          7.2780     1.8530    21.1370 c3         1 GS6      -0.101100
     22 C18          7.1810     3.6030    19.2620 c          1 GS6       0.591100
     23 O4           6.2560     4.3620    18.9890 o          1 GS6      -0.605100
     24 N3           7.8410     2.8950    18.2200 n          1 GS6      -0.414800
     25 C19          7.4130     3.0220    16.7930 c6         1 GS6       0.063500
     26 C20          8.4700     3.7870    15.9550 c6         1 GS6       0.133600
     27 O5           9.7620     3.1510    16.0940 os         1 GS6      -0.452000
     28 C22         10.2300     3.1010    17.4620 c6         1 GS6       0.133600
     29 C23          9.2180     2.3220    18.3430 c6         1 GS6       0.063500
     30 S2           9.8250     7.9080    23.4450 ss         1 GS6       0.186400
     31 H2          12.0680     6.7700    25.1480 ha         1 GS6       0.141000
     32 H10         10.1590     7.0530    29.0210 ha         1 GS6       0.133000
     33 H5           6.9200     8.8090    25.5790 ha         1 GS6       0.217000
     34 H9           8.1150     8.0270    27.9490 ha         1 GS6       0.123000
     35 H1           5.7330     7.8480    21.5130 hn         1 GS6       0.503000
     36 H12          6.9890     6.2510    23.7420 h1         1 GS6       0.086700
     37 H131         4.5620     5.7480    21.9070 hc         1 GS6       0.077200
     38 H132         4.6220     5.5810    23.6650 hc         1 GS6       0.077200
     39 H141         5.0520     3.3900    22.0550 h1         1 GS6       0.060200
     40 H142         6.0700     3.5910    23.5050 h1         1 GS6       0.060200
     41 H16          8.6610     3.4680    20.8160 h1         1 GS6       0.088700
     42 H171         7.8370     1.1540    20.5060 hc         1 GS6       0.051033
     43 H172         6.2110     1.6250    21.0220 hc         1 GS6       0.051033
     44 H173         7.5630     1.6630    22.1790 hc         1 GS6       0.051033
     45 H191         6.4430     3.5320    16.7100 h1         1 GS6       0.063950
     46 H192         7.2800     2.0150    16.3710 h1         1 GS6       0.063950
     47 H231         9.1950     1.2720    18.0160 h1         1 GS6       0.063950
     48 H232         9.5790     2.3220    19.3780 h1         1 GS6       0.063950
     49 H201         8.5380     4.8300    16.2950 h1         1 GS6       0.058950
     50 H202         8.1800     3.7890    14.8950 h1         1 GS6       0.058950
     51 H221        11.2120     2.6070    17.4890 h1         1 GS6       0.058950
     52 H222        10.3520     4.1260    17.8430 h1         1 GS6       0.058950
@<TRIPOS>BOND
     1     1     2 1   
     2     2     3 ar  
     3     2     8 ar  
     4     3     4 ar  
     5     3    31 1   
     6     4     5 ar  
     7     4    30 1   
     8     5     6 1   
     9     5     7 ar  
    10     6     9 2   
    11     6    33 1   
    12     7     8 ar  
    13     7    34 1   
    14     8    32 1   
    15     9    10 1   
    16     9    30 1   
    17    10    11 2   
    18    10    12 2   
    19    10    13 1   
    20    13    14 1   
    21    13    35 1   
    22    14    15 1   
    23    14    17 1   
    24    14    36 1   
    25    15    16 1   
    26    15    37 1   
    27    15    38 1   
    28    16    19 1   
    29    16    39 1   
    30    16    40 1   
    31    17    18 2   
    32    17    19 1   
    33    19    20 1   
    34    20    21 1   
    35    20    22 1   
    36    20    41 1   
    37    21    42 1   
    38    21    43 1   
    39    21    44 1   
    40    22    23 2   
    41    22    24 1   
    42    24    25 1   
    43    24    29 1   
    44    25    26 1   
    45    25    45 1   
    46    25    46 1   
    47    26    27 1   
    48    26    49 1   
    49    26    50 1   
    50    27    28 1   
    51    28    29 1   
    52    28    51 1   
    53    28    52 1   
    54    29    47 1   
    55    29    48 1   
@<TRIPOS>SUBSTRUCTURE
     1 GS6         1 TEMP              0 ****  ****    0 ROOT
