@<TRIPOS>MOLECULE
GS7
   55    58     1     0     0
SMALL
No Charge or Current Charge


@<TRIPOS>ATOM
      1 C11         20.8740     8.6790    32.6730 ca         1 GS7       0.465900
      2 N2          21.5880     7.6430    32.2090 nb         1 GS7      -0.324000
      3 C19         19.6010     8.4600    33.2030 ca         1 GS7      -0.280800
      4 C22         19.0970     7.1890    33.2660 ca         1 GS7       0.187500
      5 N5          17.8360     7.2700    33.8350 na         1 GS7      -0.332400
      6 C21         17.4930     8.6050    34.1510 cc         1 GS7      -0.184100
      7 C20         18.5970     9.3400    33.7550 cd         1 GS7      -0.183200
      8 N6          19.8030     6.1370    32.8180 nb         1 GS7      -0.283000
      9 C10         21.0150     6.4270    32.3020 ca         1 GS7       0.432900
     10 N1          21.7350     5.3240    31.8740 nu         1 GS7      -0.923900
     11 C9          22.9860     5.1160    31.2610 ca         1 GS7       0.315000
     12 C2          23.6130     3.8500    31.4090 ca         1 GS7       0.083100
     13 O1          22.9670     2.8720    32.1570 os         1 GS7      -0.367100
     14 C1          23.5240     1.5600    32.3630 c3         1 GS7       0.153900
     15 C8          23.6170     6.1050    30.4790 ca         1 GS7      -0.115000
     16 C7          24.8630     5.8590    29.8800 ca         1 GS7      -0.089000
     17 C4          25.4950     4.6140    30.0420 ca         1 GS7      -0.083300
     18 C3          24.8690     3.6110    30.8030 ca         1 GS7      -0.142000
     19 C5          26.8500     4.3520    29.3930 c3         1 GS7      -0.216100
     20 S           26.7600     3.6700    27.7170 s6         1 GS7       1.083000
     21 O2          26.1550     4.6790    26.8380 o          1 GS7      -0.518500
     22 O3          26.1640     2.3290    27.7950 o          1 GS7      -0.518500
     23 C6          28.4710     3.4740    27.2200 c3         1 GS7      -0.344100
     24 O4          20.2820    12.3760    32.1860 o          1 GS7      -0.652100
     25 N4          21.2140    13.7630    30.7680 nt         1 GS7      -0.583000
     26 C17         22.5570    11.8500    31.5760 ca         1 GS7      -0.258600
     27 C16         23.7850    12.3760    31.0950 ca         1 GS7       0.215000
     28 F           23.8780    13.6250    30.5890 f          1 GS7      -0.191000
     29 C15         24.9690    11.6290    31.1510 ca         1 GS7      -0.194000
     30 C14         24.9680    10.3430    31.6970 ca         1 GS7      -0.034000
     31 C13         23.7690     9.8050    32.1760 ca         1 GS7      -0.172000
     32 C12         22.5650    10.5320    32.1030 ca         1 GS7       0.398000
     33 N3          21.3830     9.9620    32.5700 nu         1 GS7      -0.945900
     34 HN5         17.2430     6.4620    33.9960 hn         1 GS7       0.361000
     35 H21         16.5500     8.9030    34.6050 h4         1 GS7       0.218000
     36 H20         18.6820    10.4220    33.8550 ha         1 GS7       0.217000
     37 HN1         21.3310     4.4500    32.2090 hn         1 GS7       0.525000
     38 H1          23.6680     1.0430    31.4060 h1         1 GS7       0.045033
     39 H1A         24.4900     1.6230    32.8800 h1         1 GS7       0.045033
     40 H1B         22.8480     0.9530    32.9790 h1         1 GS7       0.045033
     41 H8          23.1420     7.0650    30.3110 ha         1 GS7       0.151000
     42 H7          25.3340     6.6360    29.2820 ha         1 GS7       0.120000
     43 H3          25.3690     2.6530    30.9100 ha         1 GS7       0.124000
     44 H5          27.4240     5.2820    29.3130 h1         1 GS7       0.091200
     45 H5A         27.4270     3.6340    29.9850 h1         1 GS7       0.091200
     46 H6          28.4750     3.0610    26.2060 h1         1 GS7       0.102367
     47 H6A         28.9420     4.4620    27.2460 h1         1 GS7       0.102367
     48 H6B         28.9490     2.7880    27.9280 h1         1 GS7       0.102367
     49 HN4         22.0200    14.0470    30.2310 hn         1 GS7       0.327000
     50 HN4A        20.3640    14.3050    30.7520 hn         1 GS7       0.327000
     51 H15         25.8960    12.0600    30.7810 ha         1 GS7       0.137000
     52 H14         25.8910     9.7690    31.7570 ha         1 GS7       0.121000
     53 H13         23.7890     8.8180    32.6220 ha         1 GS7       0.161000
     54 HN3         20.6490    10.6710    32.6680 hn         1 GS7       0.552000
     55 C18         21.2750    12.6600    31.5350 c          1 GS7       0.633700
@<TRIPOS>BOND
     1     1     2 ar  
     2     1     3 ar  
     3     1    33 1   
     4     2     9 ar  
     5     3     4 ar  
     6     3     7 1   
     7     4     5 1   
     8     4     8 ar  
     9     5     6 1   
    10     5    34 1   
    11     6     7 2   
    12     6    35 1   
    13     7    36 1   
    14     8     9 ar  
    15     9    10 1   
    16    10    11 1   
    17    10    37 1   
    18    11    12 ar  
    19    11    15 ar  
    20    12    13 1   
    21    12    18 ar  
    22    13    14 1   
    23    14    38 1   
    24    14    39 1   
    25    14    40 1   
    26    15    16 ar  
    27    15    41 1   
    28    16    17 ar  
    29    16    42 1   
    30    17    18 ar  
    31    17    19 1   
    32    18    43 1   
    33    19    20 1   
    34    19    44 1   
    35    19    45 1   
    36    20    21 2   
    37    20    22 2   
    38    20    23 1   
    39    23    46 1   
    40    23    47 1   
    41    23    48 1   
    42    24    55 2   
    43    25    49 1   
    44    25    50 1   
    45    25    55 1   
    46    26    27 ar  
    47    26    32 ar  
    48    26    55 1   
    49    27    28 1   
    50    27    29 ar  
    51    29    30 ar  
    52    29    51 1   
    53    30    31 ar  
    54    30    52 1   
    55    31    32 ar  
    56    31    53 1   
    57    32    33 1   
    58    33    54 1   
@<TRIPOS>SUBSTRUCTURE
     1 GS7         1 TEMP              0 ****  ****    0 ROOT
