@<TRIPOS>MOLECULE
GS7
   55    58     1     0     0
SMALL
abcg2


@<TRIPOS>ATOM
      1 C11         20.8240     8.6600    32.5300 ca         1 GS7       0.465900
      2 N2          21.5040     7.6020    32.0830 nb         1 GS7      -0.324000
      3 C19         19.5790     8.4850    33.1640 ca         1 GS7      -0.280800
      4 C22         19.1530     7.1460    33.2830 ca         1 GS7       0.187500
      5 N5          17.9510     7.1520    33.9220 na         1 GS7      -0.332400
      6 C21         17.5930     8.4610    34.2120 cc         1 GS7      -0.184100
      7 C20         18.5670     9.3080    33.7640 cd         1 GS7      -0.183200
      8 N6          19.8200     6.0740    32.8510 nb         1 GS7      -0.283000
      9 C10         20.9830     6.3770    32.2620 ca         1 GS7       0.432900
     10 N1          21.6880     5.2820    31.8150 nu         1 GS7      -0.923900
     11 C9          22.9530     5.1830    31.2440 ca         1 GS7       0.315000
     12 C2          23.6130     3.9390    31.3940 ca         1 GS7       0.083100
     13 O1          22.9270     3.0030    32.1070 os         1 GS7      -0.367100
     14 C1          23.5220     1.7200    32.2990 c3         1 GS7       0.153900
     15 C8          23.5870     6.1850    30.5130 ca         1 GS7      -0.115000
     16 C7          24.8500     5.9770    29.9690 ca         1 GS7      -0.089000
     17 C4          25.5020     4.7610    30.1290 ca         1 GS7      -0.083300
     18 C3          24.8660     3.7370    30.8390 ca         1 GS7      -0.142000
     19 C5          26.8520     4.5230    29.5290 c3         1 GS7      -0.216100
     20 S           26.7130     3.7740    27.8850 s6         1 GS7       1.083000
     21 O2          26.0850     4.7300    26.9870 o          1 GS7      -0.518500
     22 O3          26.0880     2.4670    28.0140 o          1 GS7      -0.518500
     23 C6          28.4000     3.5470    27.3780 c3         1 GS7      -0.344100
     24 O4          20.5130    12.4560    32.4380 o          1 GS7      -0.652100
     25 N4          21.3730    13.7380    30.8130 nt         1 GS7      -0.583000
     26 C17         22.6250    11.7780    31.5510 ca         1 GS7      -0.258600
     27 C16         23.8840    12.2260    31.1410 ca         1 GS7       0.215000
     28 F           24.0500    13.5400    30.8360 f          1 GS7      -0.191000
     29 C15         25.0000    11.4260    31.0390 ca         1 GS7      -0.194000
     30 C14         24.8630    10.0840    31.3710 ca         1 GS7      -0.034000
     31 C13         23.6500     9.5750    31.7990 ca         1 GS7      -0.172000
     32 C12         22.5230    10.3990    31.9040 ca         1 GS7       0.398000
     33 N3          21.3030     9.9320    32.3680 nu         1 GS7      -0.945900
     34 HN5         17.4050     6.3330    34.1390 hn         1 GS7       0.361000
     35 H21         16.6670     8.6710    34.7200 h4         1 GS7       0.218000
     36 H20         18.5600    10.3820    33.8540 ha         1 GS7       0.217000
     37 HN1         21.3030     4.4070    32.1360 hn         1 GS7       0.525000
     38 H1          23.6850     1.2200    31.3420 h1         1 GS7       0.045033
     39 H1A         24.4700     1.8070    32.8340 h1         1 GS7       0.045033
     40 H1B         22.8140     1.1510    32.8950 h1         1 GS7       0.045033
     41 H8          23.0890     7.1300    30.3820 ha         1 GS7       0.151000
     42 H7          25.3260     6.7750    29.4130 ha         1 GS7       0.120000
     43 H3          25.3670     2.7880    30.9620 ha         1 GS7       0.124000
     44 H5          27.4090     5.4470    29.3750 h1         1 GS7       0.091200
     45 H5A         27.4530     3.8250    30.1120 h1         1 GS7       0.091200
     46 H6          28.3630     3.0940    26.3880 h1         1 GS7       0.102367
     47 H6A         28.8880     4.5190    27.3410 h1         1 GS7       0.102367
     48 H6B         28.8910     2.8830    28.0870 h1         1 GS7       0.102367
     49 HN4         22.1060    13.9700    30.1660 hn         1 GS7       0.327000
     50 HN4A        20.5760    14.3510    30.8830 hn         1 GS7       0.327000
     51 H15         25.9400    11.8530    30.7200 ha         1 GS7       0.137000
     52 H14         25.7200     9.4260    31.3060 ha         1 GS7       0.121000
     53 H13         23.5610     8.5380    32.0660 ha         1 GS7       0.161000
     54 HN3         20.6680    10.6880    32.6160 hn         1 GS7       0.552000
     55 C18         21.4360    12.6850    31.6400 c          1 GS7       0.633700
@<TRIPOS>BOND
     1     1     2 ar  
     2     1     3 ar  
     3     1    33 1   
     4     2     9 ar  
     5     3     4 ar  
     6     3     7 1   
     7     4     5 1   
     8     4     8 ar  
     9     5     6 1   
    10     5    34 1   
    11     6     7 2   
    12     6    35 1   
    13     7    36 1   
    14     8     9 ar  
    15     9    10 1   
    16    10    11 1   
    17    10    37 1   
    18    11    12 ar  
    19    11    15 ar  
    20    12    13 1   
    21    12    18 ar  
    22    13    14 1   
    23    14    38 1   
    24    14    39 1   
    25    14    40 1   
    26    15    16 ar  
    27    15    41 1   
    28    16    17 ar  
    29    16    42 1   
    30    17    18 ar  
    31    17    19 1   
    32    18    43 1   
    33    19    20 1   
    34    19    44 1   
    35    19    45 1   
    36    20    21 2   
    37    20    22 2   
    38    20    23 1   
    39    23    46 1   
    40    23    47 1   
    41    23    48 1   
    42    24    55 2   
    43    25    49 1   
    44    25    50 1   
    45    25    55 1   
    46    26    27 ar  
    47    26    32 ar  
    48    26    55 1   
    49    27    28 1   
    50    27    29 ar  
    51    29    30 ar  
    52    29    51 1   
    53    30    31 ar  
    54    30    52 1   
    55    31    32 ar  
    56    31    53 1   
    57    32    33 1   
    58    33    54 1   
@<TRIPOS>SUBSTRUCTURE
     1 GS7         1 TEMP              0 ****  ****    0 ROOT
