@<TRIPOS>MOLECULE
GS8
   36    35     1     0     0
SMALL
abcg2


@<TRIPOS>ATOM
      1 CB1        -17.3860     6.8750   -46.4040 c3         1 GS8      -0.039400
      2 CG1        -17.5470     6.1210   -47.7240 c3         1 GS8      -0.144400
      3 CD1        -17.4160     7.0510   -48.9110 c          1 GS8       0.594100
      4 OE1        -16.4250     7.7660   -49.0750 o          1 GS8      -0.637100
      5 C1         -16.4970     4.8200   -45.2230 c          1 GS8       0.679000
      6 O11        -16.9430     3.6780   -45.5040 o          1 GS8      -0.740500
      7 O12        -15.2940     5.1130   -44.9990 o          1 GS8      -0.740500
      8 N1         -17.3630     6.8310   -43.9670 n8         1 GS8      -1.000200
      9 CA1        -17.5160     5.9870   -45.1640 c3         1 GS8       0.019500
     10 N2         -18.4560     7.0550   -49.7710 ns         1 GS8      -0.504900
     11 CA2        -18.4910     7.8730   -50.9710 c3         1 GS8       0.041700
     12 CB2        -17.7800     7.1530   -52.1280 c3         1 GS8       0.000600
     13 SG2        -17.7060     8.0900   -53.6680 ss         1 GS8      -0.093200
     14 O13        -16.8210     9.4350   -53.2080 oh         1 GS8      -0.540800
     15 C2         -19.9570     8.1370   -51.3110 c          1 GS8       0.580100
     16 O2         -20.7520     7.1940   -51.3860 o          1 GS8      -0.679100
     17 N3         -20.2920     9.4080   -51.5160 ns         1 GS8      -0.442900
     18 CA3        -21.6150     9.8470   -51.9060 c3         1 GS8      -0.049000
     19 C3         -21.6550    11.3800   -52.0770 c          1 GS8       0.707000
     20 O32        -20.5920    12.0100   -51.8570 o          1 GS8      -0.734000
     21 O31        -22.7640    11.8520   -52.4210 o          1 GS8      -0.734000
     22 HA31       -22.3540     9.5570   -51.1550 h1         1 GS8       0.036200
     23 HA32       -21.9120     9.3780   -52.8470 h1         1 GS8       0.036200
     24 H3         -19.6110    10.1550   -51.4440 hn         1 GS8       0.352500
     25 HA2        -17.9690     8.8030   -50.7570 h1         1 GS8       0.091700
     26 HB21       -16.7730     6.8740   -51.8180 h1         1 GS8       0.078200
     27 HB22       -18.3250     6.2430   -52.3950 h1         1 GS8       0.078200
     28 H2         -19.2210     6.4120   -49.6350 hn         1 GS8       0.330500
     29 H13        -15.8790     9.2190   -53.2810 ho         1 GS8       0.437000
     30 HG11       -18.5050     5.5980   -47.7510 hc         1 GS8       0.067700
     31 HG12       -16.7620     5.3660   -47.8210 hc         1 GS8       0.067700
     32 HB11       -16.4090     7.3620   -46.3850 hc         1 GS8       0.041700
     33 HB12       -18.1420     7.6640   -46.3380 hc         1 GS8       0.041700
     34 HA1        -18.5190     5.5540   -45.1400 h1         1 GS8       0.038700
     35 H11N       -17.5710     6.2740   -43.1420 hn         1 GS8       0.379500
     36 H12N       -16.3750     7.0640   -43.8880 hn         1 GS8       0.379500
@<TRIPOS>BOND
     1     1     2 1   
     2     1     9 1   
     3     1    32 1   
     4     1    33 1   
     5     2     3 1   
     6     2    30 1   
     7     2    31 1   
     8     3     4 2   
     9     3    10 1   
    10     5     6 1   
    11     5     7 1   
    12     5     9 1   
    13     8     9 1   
    14     8    35 1   
    15     8    36 1   
    16     9    34 1   
    17    10    11 1   
    18    10    28 1   
    19    11    12 1   
    20    11    15 1   
    21    11    25 1   
    22    12    13 1   
    23    12    26 1   
    24    12    27 1   
    25    13    14 1   
    26    14    29 1   
    27    15    16 2   
    28    15    17 1   
    29    17    18 1   
    30    17    24 1   
    31    18    19 1   
    32    18    22 1   
    33    18    23 1   
    34    19    20 1   
    35    19    21 1   
@<TRIPOS>SUBSTRUCTURE
     1 GS8         1 TEMP              0 ****  ****    0 ROOT
