@<TRIPOS>MOLECULE
GS8
   36    35     1     0     0
SMALL
No Charge or Current Charge


@<TRIPOS>ATOM
      1 CB1        -17.2270     6.6670   -46.3790 c3         1 GS8      -0.039400
      2 CG1        -17.3180     5.9230   -47.7340 c3         1 GS8      -0.144400
      3 CD1        -17.2170     6.8950   -48.9130 c          1 GS8       0.594100
      4 OE1        -16.1620     7.4110   -49.2530 o          1 GS8      -0.637100
      5 C1         -16.3310     4.5870   -45.1050 c          1 GS8       0.679000
      6 O11        -16.7180     3.4330   -45.2300 o          1 GS8      -0.740500
      7 O12        -15.1720     4.8750   -44.8360 o          1 GS8      -0.740500
      8 N1         -17.5040     6.5910   -43.8920 n8         1 GS8      -1.000200
      9 CA1        -17.4110     5.7490   -45.1390 c3         1 GS8       0.019500
     10 N2         -18.3950     7.1230   -49.5870 ns         1 GS8      -0.504900
     11 CA2        -18.5480     8.0040   -50.7690 c3         1 GS8       0.041700
     12 CB2        -17.9380     7.3220   -52.0240 c3         1 GS8       0.000600
     13 SG2        -18.0530     8.3500   -53.5610 ss         1 GS8      -0.093200
     14 O13        -17.4840     9.8400   -52.9940 oh         1 GS8      -0.540800
     15 C2         -20.0500     8.3780   -50.9520 c          1 GS8       0.580100
     16 O2         -20.9640     7.7390   -50.4390 o          1 GS8      -0.679100
     17 N3         -20.2930     9.5110   -51.6980 ns         1 GS8      -0.442900
     18 CA3        -21.6330    10.0720   -51.9780 c3         1 GS8      -0.049000
     19 C3         -21.5610    11.2690   -52.9630 c          1 GS8       0.707000
     20 O32        -20.8960    12.2440   -52.6420 o          1 GS8      -0.734000
     21 O31        -22.1380    11.1720   -54.0370 o          1 GS8      -0.734000
     22 HA31       -22.0840    10.4180   -51.0400 h1         1 GS8       0.036200
     23 HA32       -22.2700     9.2890   -52.4090 h1         1 GS8       0.036200
     24 H3         -19.4800     9.9590   -52.1150 hn         1 GS8       0.352500
     25 HA2        -18.0070     8.9380   -50.5710 h1         1 GS8       0.091700
     26 HB21       -16.8780     7.1090   -51.8390 h1         1 GS8       0.078200
     27 HB22       -18.4450     6.3660   -52.2080 h1         1 GS8       0.078200
     28 H2         -19.2260     6.6640   -49.2290 hn         1 GS8       0.330500
     29 H13        -16.5190     9.8870   -53.1810 ho         1 GS8       0.437000
     30 HG11       -18.2740     5.3870   -47.7730 hc         1 GS8       0.067700
     31 HG12       -16.4890     5.2090   -47.8040 hc         1 GS8       0.067700
     32 HB11       -16.2570     7.1760   -46.3140 hc         1 GS8       0.041700
     33 HB12       -17.9960     7.4490   -46.3600 hc         1 GS8       0.041700
     34 HA1        -18.3880     5.2580   -45.2490 h1         1 GS8       0.038700
     35 H11N       -17.6990     5.9780   -43.0900 hn         1 GS8       0.379500
     36 H12N       -16.5670     6.9570   -43.6800 hn         1 GS8       0.379500
@<TRIPOS>BOND
     1     1     2 1   
     2     1     9 1   
     3     1    32 1   
     4     1    33 1   
     5     2     3 1   
     6     2    30 1   
     7     2    31 1   
     8     3     4 2   
     9     3    10 1   
    10     5     6 1   
    11     5     7 1   
    12     5     9 1   
    13     8     9 1   
    14     8    35 1   
    15     8    36 1   
    16     9    34 1   
    17    10    11 1   
    18    10    28 1   
    19    11    12 1   
    20    11    15 1   
    21    11    25 1   
    22    12    13 1   
    23    12    26 1   
    24    12    27 1   
    25    13    14 1   
    26    14    29 1   
    27    15    16 2   
    28    15    17 1   
    29    17    18 1   
    30    17    24 1   
    31    18    19 1   
    32    18    22 1   
    33    18    23 1   
    34    19    20 1   
    35    19    21 1   
@<TRIPOS>SUBSTRUCTURE
     1 GS8         1 TEMP              0 ****  ****    0 ROOT
