@<TRIPOS>MOLECULE
GS9
   40    42     1     0     0
SMALL
abcg2


@<TRIPOS>ATOM
      1 C1          -1.3430     0.3650    -0.1970 c6         1 GS9       0.260300
      2 O5          -1.7350    -0.9150    -0.6010 os         1 GS9      -0.411000
      3 S1          -0.1120     0.9880    -1.3690 ss         1 GS9      -0.167000
      4 C2          -2.5450     1.3170    -0.1720 c6         1 GS9       0.116300
      5 O2          -2.2040     2.5780     0.3440 oh         1 GS9      -0.725000
      6 C3          -3.6110     0.7260     0.7500 c6         1 GS9       0.141300
      7 O3          -4.8050     1.4650     0.7120 oh         1 GS9      -0.668000
      8 C4          -3.9400    -0.7120     0.3550 c6         1 GS9       0.151300
      9 O4          -4.5600    -0.7830    -0.9040 oh         1 GS9      -0.709000
     10 C5          -2.6450    -1.5100     0.3070 c6         1 GS9       0.159300
     11 C80          1.5120    -1.0350    -0.3680 ca         1 GS9      -0.086000
     12 C6          -2.8430    -2.9510    -0.1050 c3         1 GS9       0.172600
     13 C90          2.7010    -1.5210     0.0970 ca         1 GS9      -0.101000
     14 C7           1.3910     0.3370    -0.7010 ca         1 GS9      -0.108000
     15 C8           2.4680     1.1750    -0.5750 ca         1 GS9      -0.064000
     16 C9           3.7150     0.6860    -0.1200 ca         1 GS9      -0.043000
     17 C14          3.8350    -0.6830     0.2280 ca         1 GS9      -0.027000
     18 C13          5.0790    -1.1690     0.6930 ca         1 GS9      -0.100000
     19 C12          6.1530    -0.3290     0.8090 ca         1 GS9      -0.103000
     20 C11          6.0330     1.0340     0.4670 ca         1 GS9      -0.109000
     21 C10          4.8410     1.5310     0.0130 ca         1 GS9      -0.094000
     22 H1          -0.8780     0.3420     0.8010 h2         1 GS9       0.068700
     23 H2          -2.9560     1.3920    -1.1890 h1         1 GS9       0.072700
     24 H5          -2.2190    -1.4980     1.3230 h1         1 GS9       0.050700
     25 HA          -1.7200     3.0720    -0.3260 ho         1 GS9       0.525000
     26 H3          -3.1930     0.7010     1.7690 h1         1 GS9       0.049700
     27 H4          -4.5780    -1.1460     1.1400 h1         1 GS9       0.049700
     28 HB          -5.3250    -0.1970    -0.8960 ho         1 GS9       0.522000
     29 H90          2.7890    -2.5680     0.3580 ha         1 GS9       0.117000
     30 H61C        -3.6410    -3.3740     0.5200 h1         1 GS9       0.039700
     31 H62C        -3.1890    -2.9980    -1.1440 h1         1 GS9       0.039700
     32 HC          -1.7280    -4.5250    -0.2670 ho         1 GS9       0.507000
     33 H8           2.3740     2.2270    -0.8170 ha         1 GS9       0.122000
     34 H10          4.7480     2.5780    -0.2490 ha         1 GS9       0.114000
     35 H11          6.8890     1.6880     0.5650 ha         1 GS9       0.113000
     36 H12          7.1020    -0.7090     1.1660 ha         1 GS9       0.113000
     37 HD          -4.5990     2.3930     0.8680 ho         1 GS9       0.469000
     38 H13          5.1700    -2.2150     0.9560 ha         1 GS9       0.115000
     39 O6          -1.6230    -3.6320     0.0720 oh         1 GS9      -0.720000
     40 H80          0.6630    -1.6980    -0.4740 ha         1 GS9       0.146000
@<TRIPOS>BOND
     1     1     2 1   
     2     1     3 1   
     3     1     4 1   
     4     1    22 1   
     5     2    10 1   
     6     3    14 1   
     7     4     5 1   
     8     4     6 1   
     9     4    23 1   
    10     5    25 1   
    11     6     7 1   
    12     6     8 1   
    13     6    26 1   
    14     7    37 1   
    15     8     9 1   
    16     8    10 1   
    17     8    27 1   
    18     9    28 1   
    19    10    12 1   
    20    10    24 1   
    21    11    13 ar  
    22    11    14 ar  
    23    11    40 1   
    24    12    30 1   
    25    12    31 1   
    26    12    39 1   
    27    13    17 ar  
    28    13    29 1   
    29    14    15 ar  
    30    15    16 ar  
    31    15    33 1   
    32    16    17 ar  
    33    16    21 ar  
    34    17    18 ar  
    35    18    19 ar  
    36    18    38 1   
    37    19    20 ar  
    38    19    36 1   
    39    20    21 ar  
    40    20    35 1   
    41    21    34 1   
    42    32    39 1   
@<TRIPOS>SUBSTRUCTURE
     1 GS9         1 TEMP              0 ****  ****    0 ROOT
