@<TRIPOS>MOLECULE
GS9
   40    42     1     0     0
SMALL
No Charge or Current Charge


@<TRIPOS>ATOM
      1 C1          -1.4850     0.6480     0.2050 c6         1 GS9       0.260300
      2 O5          -1.5840    -0.6500    -0.4220 os         1 GS9      -0.411000
      3 S1          -0.0850     1.5820    -0.5750 ss         1 GS9      -0.167000
      4 C2          -2.8500     1.4020     0.0670 c6         1 GS9       0.116300
      5 O2          -2.8380     2.6970     0.7170 oh         1 GS9      -0.725000
      6 C3          -3.9950     0.5270     0.6680 c6         1 GS9       0.141300
      7 O3          -5.2630     1.1780     0.4650 oh         1 GS9      -0.668000
      8 C4          -4.0070    -0.9010     0.0440 c6         1 GS9       0.151300
      9 O4          -4.4450    -0.8130    -1.3280 oh         1 GS9      -0.709000
     10 C5          -2.5770    -1.5180     0.1840 c6         1 GS9       0.159300
     11 C80          1.4170    -0.4480     0.7120 ca         1 GS9      -0.086000
     12 C6          -2.4640    -2.9390    -0.4570 c3         1 GS9       0.172600
     13 C90          2.6290    -1.0790     1.0460 ca         1 GS9      -0.101000
     14 C7           1.4170     0.7060    -0.1030 ca         1 GS9      -0.108000
     15 C8           2.6420     1.2150    -0.5730 ca         1 GS9      -0.064000
     16 C9           3.8570     0.5860    -0.2400 ca         1 GS9      -0.043000
     17 C14          3.8500    -0.5670     0.5730 ca         1 GS9      -0.027000
     18 C13          5.0640    -1.1970     0.9070 ca         1 GS9      -0.100000
     19 C12          6.2810    -0.6790     0.4310 ca         1 GS9      -0.103000
     20 C11          6.2880     0.4690    -0.3800 ca         1 GS9      -0.109000
     21 C10          5.0780     1.1020    -0.7150 ca         1 GS9      -0.094000
     22 H1          -1.2390     0.5370     1.2720 h2         1 GS9       0.068700
     23 H2          -3.0440     1.5280    -1.0090 h1         1 GS9       0.072700
     24 H5          -2.3420    -1.6210     1.2540 h1         1 GS9       0.050700
     25 HA          -2.1690     3.2550     0.2520 ho         1 GS9       0.525000
     26 H3          -3.8070     0.4200     1.7470 h1         1 GS9       0.049700
     27 H4          -4.7100    -1.5230     0.6190 h1         1 GS9       0.049700
     28 HB          -5.1540    -0.1250    -1.3110 ho         1 GS9       0.522000
     29 H90          2.6150    -1.9680     1.6720 ha         1 GS9       0.117000
     30 H61C        -3.2420    -3.5750    -0.0120 h1         1 GS9       0.039700
     31 H62C        -2.6890    -2.8530    -1.5290 h1         1 GS9       0.039700
     32 HC          -1.1660    -4.3850    -0.7870 ho         1 GS9       0.507000
     33 H8           2.6470     2.1040    -1.2000 ha         1 GS9       0.122000
     34 H10          5.0920     1.9900    -1.3430 ha         1 GS9       0.114000
     35 H11          7.2310     0.8690    -0.7470 ha         1 GS9       0.113000
     36 H12          7.2180    -1.1670     0.6890 ha         1 GS9       0.113000
     37 HD          -5.0980     2.1230     0.6930 ho         1 GS9       0.469000
     38 H13          5.0670    -2.0860     1.5330 ha         1 GS9       0.115000
     39 O6          -1.1670    -3.5440    -0.2720 oh         1 GS9      -0.720000
     40 H80          0.4950    -0.8740     1.0930 ha         1 GS9       0.146000
@<TRIPOS>BOND
     1     1     2 1   
     2     1     3 1   
     3     1     4 1   
     4     1    22 1   
     5     2    10 1   
     6     3    14 1   
     7     4     5 1   
     8     4     6 1   
     9     4    23 1   
    10     5    25 1   
    11     6     7 1   
    12     6     8 1   
    13     6    26 1   
    14     7    37 1   
    15     8     9 1   
    16     8    10 1   
    17     8    27 1   
    18     9    28 1   
    19    10    12 1   
    20    10    24 1   
    21    11    13 ar  
    22    11    14 ar  
    23    11    40 1   
    24    12    30 1   
    25    12    31 1   
    26    12    39 1   
    27    13    17 ar  
    28    13    29 1   
    29    14    15 ar  
    30    15    16 ar  
    31    15    33 1   
    32    16    17 ar  
    33    16    21 ar  
    34    17    18 ar  
    35    18    19 ar  
    36    18    38 1   
    37    19    20 ar  
    38    19    36 1   
    39    20    21 ar  
    40    20    35 1   
    41    21    34 1   
    42    32    39 1   
@<TRIPOS>SUBSTRUCTURE
     1 GS9         1 TEMP              0 ****  ****    0 ROOT
