@<TRIPOS>MOLECULE
GSB
   48    48     1     0     0
SMALL
No Charge or Current Charge


@<TRIPOS>ATOM
      1 N1          73.6650    34.9490     0.6350 n8         1 GSB      -0.983200
      2 CA1         74.1100    34.8660    -0.8050 c3         1 GSB       0.012500
      3 C1          73.6480    33.5860    -1.6230 c          1 GSB       0.718000
      4 O11         73.5900    32.5060    -1.0460 o          1 GSB      -0.737000
      5 O12         73.3170    33.7390    -2.7920 o          1 GSB      -0.737000
      6 CB1         75.6510    35.0670    -0.8710 c3         1 GSB      -0.080400
      7 CG1         76.2480    35.0970    -2.3040 c3         1 GSB      -0.140400
      8 CD1         75.7160    36.2680    -3.1410 c          1 GSB       0.592100
      9 OE1         76.2240    37.3810    -3.1140 o          1 GSB      -0.665100
     10 N2          74.6410    35.9740    -3.9410 ns         1 GSB      -0.490900
     11 CA2         74.0210    36.9120    -4.9060 c3         1 GSB       0.054700
     12 C2          72.8500    37.7040    -4.2540 c          1 GSB       0.573100
     13 O2          72.3130    37.3820    -3.2000 o          1 GSB      -0.636100
     14 N3          72.4450    38.8230    -4.9540 ns         1 GSB      -0.471900
     15 CA3         71.3430    39.7250    -4.5470 c3         1 GSB      -0.043000
     16 C3          71.2340    40.9810    -5.4600 c          1 GSB       0.706000
     17 O31         71.6820    40.9220    -6.5980 o          1 GSB      -0.742500
     18 O32         70.7390    41.9940    -4.9880 o          1 GSB      -0.742500
     19 CB2         73.5360    36.1630    -6.1690 c3         1 GSB       0.073600
     20 SG2         74.9410    35.3130    -7.0370 ss         1 GSB      -0.455000
     21 C           74.0700    34.7020    -8.5520 c3         1 GSB       0.119900
     22 C7          72.8990    33.7970    -8.1900 ca         1 GSB      -0.080300
     23 C8          71.5730    34.2340    -8.3820 ca         1 GSB      -0.091000
     24 C9          70.4950    33.3980    -8.0410 ca         1 GSB      -0.097500
     25 C4          70.7360    32.1210    -7.5080 ca         1 GSB      -0.097000
     26 C5          72.0560    31.6800    -7.3150 ca         1 GSB      -0.097500
     27 C6          73.1340    32.5150    -7.6550 ca         1 GSB      -0.091000
     28 HN11        74.1770    35.7020     1.1080 hn         1 GSB       0.373000
     29 HN12        73.9680    34.0960     1.1210 hn         1 GSB       0.373000
     30 HA1         73.6500    35.7190    -1.3250 h1         1 GSB       0.091700
     31 HB11        75.9190    36.0010    -0.3620 hc         1 GSB       0.020200
     32 HB12        76.1390    34.2560    -0.3150 hc         1 GSB       0.020200
     33 HG11        77.3360    35.1930    -2.2160 hc         1 GSB       0.052200
     34 HG12        76.0040    34.1480    -2.7940 hc         1 GSB       0.052200
     35 HN2         74.2100    35.0600    -3.7960 hn         1 GSB       0.395500
     36 HA2         74.7740    37.6470    -5.2170 h1         1 GSB       0.065700
     37 HN3         72.9380    39.0410    -5.8150 hn         1 GSB       0.338500
     38 HA31        70.3930    39.1770    -4.5970 h1         1 GSB       0.033700
     39 HA32        71.5100    40.0530    -3.5140 h1         1 GSB       0.033700
     40 HB21        72.7790    35.4190    -5.8870 h1         1 GSB       0.077200
     41 HB22        73.0720    36.8740    -6.8650 h1         1 GSB       0.077200
     42 H'1         73.7160    35.5630    -9.1330 h1         1 GSB       0.055200
     43 H'2         74.7840    34.1460    -9.1730 h1         1 GSB       0.055200
     44 H2          71.3760    35.2210    -8.7930 ha         1 GSB       0.105000
     45 H3          69.4740    33.7410    -8.1910 ha         1 GSB       0.102500
     46 H4          69.9020    31.4750    -7.2440 ha         1 GSB       0.101000
     47 H5          72.2440    30.6920    -6.9010 ha         1 GSB       0.102500
     48 H6          74.1530    32.1680    -7.5000 ha         1 GSB       0.105000
@<TRIPOS>BOND
     1     1     2 1   
     2     1    28 1   
     3     1    29 1   
     4     2     3 1   
     5     2     6 1   
     6     2    30 1   
     7     3     4 1   
     8     3     5 1   
     9     6     7 1   
    10     6    31 1   
    11     6    32 1   
    12     7     8 1   
    13     7    33 1   
    14     7    34 1   
    15     8     9 2   
    16     8    10 1   
    17    10    11 1   
    18    10    35 1   
    19    11    12 1   
    20    11    19 1   
    21    11    36 1   
    22    12    13 2   
    23    12    14 1   
    24    14    15 1   
    25    14    37 1   
    26    15    16 1   
    27    15    38 1   
    28    15    39 1   
    29    16    17 1   
    30    16    18 1   
    31    19    20 1   
    32    19    40 1   
    33    19    41 1   
    34    20    21 1   
    35    21    22 1   
    36    21    42 1   
    37    21    43 1   
    38    22    23 ar  
    39    22    27 ar  
    40    23    24 ar  
    41    23    44 1   
    42    24    25 ar  
    43    24    45 1   
    44    25    26 ar  
    45    25    46 1   
    46    26    27 ar  
    47    26    47 1   
    48    27    48 1   
@<TRIPOS>SUBSTRUCTURE
     1 GSB         1 TEMP              0 ****  ****    0 ROOT
