@<TRIPOS>MOLECULE
GSB
   48    48     1     0     0
SMALL
abcg2


@<TRIPOS>ATOM
      1 N1          72.7560    34.2180    -0.6360 n8         1 GSB      -0.983200
      2 CA1         73.6480    34.5610    -1.7510 c3         1 GSB       0.012500
      3 C1          73.8780    33.3170    -2.6360 c          1 GSB       0.718000
      4 O11         73.9230    32.2000    -2.0730 o          1 GSB      -0.737000
      5 O12         74.0440    33.5240    -3.8750 o          1 GSB      -0.737000
      6 CB1         75.0010    35.1240    -1.2630 c3         1 GSB      -0.080400
      7 CG1         76.0190    35.5040    -2.3530 c3         1 GSB      -0.140400
      8 CD1         75.5250    36.6110    -3.2650 c          1 GSB       0.592100
      9 OE1         75.7930    37.8000    -3.0600 o          1 GSB      -0.665100
     10 N2          74.7660    36.2060    -4.2980 ns         1 GSB      -0.490900
     11 CA2         74.1040    37.1520    -5.1650 c3         1 GSB       0.054700
     12 C2          73.0560    37.9840    -4.3990 c          1 GSB       0.573100
     13 O2          72.3730    37.4880    -3.5020 o          1 GSB      -0.636100
     14 N3          72.9240    39.2440    -4.8210 ns         1 GSB      -0.471900
     15 CA3         71.9490    40.1780    -4.3000 c3         1 GSB      -0.043000
     16 C3          72.0530    41.5400    -5.0200 c          1 GSB       0.706000
     17 O31         72.9260    41.6530    -5.9150 o          1 GSB      -0.742500
     18 O32         71.2420    42.4120    -4.6310 o          1 GSB      -0.742500
     19 CB2         73.3900    36.4140    -6.2960 c3         1 GSB       0.073600
     20 SG2         74.5890    35.5860    -7.3910 ss         1 GSB      -0.455000
     21 C           73.4330    34.6590    -8.4740 c3         1 GSB       0.119900
     22 C7          72.7080    33.5560    -7.7610 ca         1 GSB      -0.080300
     23 C8          71.4000    33.7380    -7.3120 ca         1 GSB      -0.091000
     24 C9          70.7420    32.7290    -6.6130 ca         1 GSB      -0.097500
     25 C4          71.3840    31.5220    -6.3620 ca         1 GSB      -0.097000
     26 C5          72.6870    31.3270    -6.8160 ca         1 GSB      -0.097500
     27 C6          73.3420    32.3370    -7.5070 ca         1 GSB      -0.091000
     28 HN11        72.8040    34.9410     0.0750 hn         1 GSB       0.373000
     29 HN12        73.1030    33.3620    -0.2130 hn         1 GSB       0.373000
     30 HA1         73.1560    35.3190    -2.3600 h1         1 GSB       0.091700
     31 HB11        74.7910    36.0050    -0.6480 hc         1 GSB       0.020200
     32 HB12        75.4640    34.3820    -0.6080 hc         1 GSB       0.020200
     33 HG11        76.9310    35.8610    -1.8770 hc         1 GSB       0.052200
     34 HG12        76.2680    34.6220    -2.9460 hc         1 GSB       0.052200
     35 HN2         74.4550    35.2240    -4.2930 hn         1 GSB       0.395500
     36 HA2         74.8450    37.8370    -5.5830 h1         1 GSB       0.065700
     37 HN3         73.5160    39.6260    -5.5470 hn         1 GSB       0.338500
     38 HA31        70.9350    39.7900    -4.4270 h1         1 GSB       0.033700
     39 HA32        72.0990    40.3360    -3.2290 h1         1 GSB       0.033700
     40 HB21        72.7130    35.6690    -5.8770 h1         1 GSB       0.077200
     41 HB22        72.8080    37.1220    -6.8850 h1         1 GSB       0.077200
     42 H'1         72.7360    35.3700    -8.9180 h1         1 GSB       0.055200
     43 H'2         74.0710    34.2650    -9.2650 h1         1 GSB       0.055200
     44 H2          70.8940    34.6750    -7.5100 ha         1 GSB       0.105000
     45 H3          69.7280    32.8880    -6.2670 ha         1 GSB       0.102500
     46 H4          70.8740    30.7360    -5.8190 ha         1 GSB       0.101000
     47 H5          73.1920    30.3880    -6.6270 ha         1 GSB       0.102500
     48 H6          74.3600    32.1870    -7.8480 ha         1 GSB       0.105000
@<TRIPOS>BOND
     1     1     2 1   
     2     1    28 1   
     3     1    29 1   
     4     2     3 1   
     5     2     6 1   
     6     2    30 1   
     7     3     4 1   
     8     3     5 1   
     9     6     7 1   
    10     6    31 1   
    11     6    32 1   
    12     7     8 1   
    13     7    33 1   
    14     7    34 1   
    15     8     9 2   
    16     8    10 1   
    17    10    11 1   
    18    10    35 1   
    19    11    12 1   
    20    11    19 1   
    21    11    36 1   
    22    12    13 2   
    23    12    14 1   
    24    14    15 1   
    25    14    37 1   
    26    15    16 1   
    27    15    38 1   
    28    15    39 1   
    29    16    17 1   
    30    16    18 1   
    31    19    20 1   
    32    19    40 1   
    33    19    41 1   
    34    20    21 1   
    35    21    22 1   
    36    21    42 1   
    37    21    43 1   
    38    22    23 ar  
    39    22    27 ar  
    40    23    24 ar  
    41    23    44 1   
    42    24    25 ar  
    43    24    45 1   
    44    25    26 ar  
    45    25    46 1   
    46    26    27 ar  
    47    26    47 1   
    48    27    48 1   
@<TRIPOS>SUBSTRUCTURE
     1 GSB         1 TEMP              0 ****  ****    0 ROOT
