@<TRIPOS>MOLECULE
GSC
   16    15     1     0     0
SMALL
bcc


@<TRIPOS>ATOM
      1 N          -19.3220    64.2370    36.4370 n8         1 GSC      -0.872800
      2 CA         -18.2010    65.0450    36.7980 c3         1 GSC       0.200600
      3 C          -17.9670    65.0430    38.3250 c          1 GSC       0.943600
      4 O          -18.9830    64.9360    39.0360 o          1 GSC      -0.822300
      5 S          -18.4550    66.8150    36.2610 ss         1 GSC      -0.568200
      6 C1         -16.7750    67.5000    36.3610 c3         1 GSC       0.062700
      7 C2         -16.7380    68.8730    35.7110 c3         1 GSC      -0.076100
      8 OXT        -16.7860    65.1770    38.6980 o          1 GSC      -0.822300
      9 H          -19.5940    64.3740    35.4720 hn         1 GSC       0.348800
     10 H2         -20.1100    64.4610    37.0300 hn         1 GSC       0.348800
     11 HA         -17.3050    64.7080    36.2730 h2         1 GSC       0.053700
     12 H11        -16.4650    67.5600    37.4040 h1         1 GSC       0.063700
     13 H12        -16.0900    66.8180    35.8530 h1         1 GSC       0.063700
     14 H21        -15.7340    69.2920    35.7790 hc         1 GSC       0.024700
     15 H22        -17.0100    68.8220    34.6570 hc         1 GSC       0.024700
     16 H23        -17.4200    69.5670    36.2030 hc         1 GSC       0.024700
@<TRIPOS>BOND
     1     1     2 1   
     2     1     9 1   
     3     1    10 1   
     4     2     3 1   
     5     2     5 1   
     6     2    11 1   
     7     3     4 1   
     8     3     8 1   
     9     5     6 1   
    10     6     7 1   
    11     6    12 1   
    12     6    13 1   
    13     7    14 1   
    14     7    15 1   
    15     7    16 1   
@<TRIPOS>SUBSTRUCTURE
     1 GSC         1 TEMP              0 ****  ****    0 ROOT
