@<TRIPOS>MOLECULE
GSC
   16    15     1     0     0
SMALL
No Charge or Current Charge


@<TRIPOS>ATOM
      1 N          -19.3960    64.3010    36.3880 n8         1 GSC      -0.872800
      2 CA         -18.1540    64.9920    36.8270 c3         1 GSC       0.200600
      3 C          -17.8160    65.0290    38.4050 c          1 GSC       0.943600
      4 O          -18.7190    65.2480    39.2140 o          1 GSC      -0.822300
      5 S          -18.4670    66.6430    36.0420 ss         1 GSC      -0.568200
      6 C1         -16.8380    67.4670    36.3590 c3         1 GSC       0.062700
      7 C2         -16.8050    68.8610    35.7090 c3         1 GSC      -0.076100
      8 OXT        -16.6590    64.8160    38.7650 o          1 GSC      -0.822300
      9 H          -19.5310    64.5220    35.3990 hn         1 GSC       0.348800
     10 H2         -20.1810    64.7680    36.8510 hn         1 GSC       0.348800
     11 HA         -17.2970    64.5380    36.3140 h2         1 GSC       0.053700
     12 H11        -16.6780    67.5630    37.4410 h1         1 GSC       0.063700
     13 H12        -16.0300    66.8500    35.9430 h1         1 GSC       0.063700
     14 H21        -15.8400    69.3450    35.8970 hc         1 GSC       0.024700
     15 H22        -16.9470    68.7860    34.6240 hc         1 GSC       0.024700
     16 H23        -17.5970    69.4980    36.1210 hc         1 GSC       0.024700
@<TRIPOS>BOND
     1     1     2 1   
     2     1     9 1   
     3     1    10 1   
     4     2     3 1   
     5     2     5 1   
     6     2    11 1   
     7     3     4 1   
     8     3     8 1   
     9     5     6 1   
    10     6     7 1   
    11     6    12 1   
    12     6    13 1   
    13     7    14 1   
    14     7    15 1   
    15     7    16 1   
@<TRIPOS>SUBSTRUCTURE
     1 GSC         1 TEMP              0 ****  ****    0 ROOT
