@<TRIPOS>MOLECULE
GSE
   28    27     1     0     0
SMALL
No Charge or Current Charge


@<TRIPOS>ATOM
      1 C1          20.1740    48.8050    17.8190 c3         1 GSE       0.247600
      2 O11         18.7550    48.5680    17.8130 os         1 GSE      -0.565400
      3 O12         18.0900    48.9980    15.5010 os         1 GSE      -0.591400
      4 C2          20.9140    47.5830    18.4460 c3         1 GSE       0.178300
      5 C3          22.4390    47.8370    18.6380 c3         1 GSE       0.143600
      6 O31         22.7010    48.9390    19.5200 oh         1 GSE      -0.566000
      7 P           18.0570    47.8020    16.5770 p5         1 GSE       1.419800
      8 O14         18.8550    46.6290    16.1130 o          1 GSE      -0.859500
      9 O13         16.6540    47.4060    16.9020 o          1 GSE      -0.859500
     10 O21         20.2900    47.2160    19.6930 oh         1 GSE      -0.614000
     11 C11         17.1740    50.0930    15.6560 c3         1 GSE       0.241600
     12 C12         17.8050    51.3810    15.0500 c3         1 GSE       0.018500
     13 N           18.1400    51.2260    13.5750 n8         1 GSE      -1.006200
     14 C13         18.9660    51.8780    16.0030 c          1 GSE       0.708000
     15 O16         20.1270    51.7830    15.6200 o          1 GSE      -0.752000
     16 O15         18.6550    52.4970    17.0120 o          1 GSE      -0.752000
     17 H11         20.5510    48.9750    16.8020 h1         1 GSE       0.014200
     18 H12A        20.3910    49.7070    18.4050 h1         1 GSE       0.014200
     19 H2          20.8250    46.7380    17.7540 h1         1 GSE      -0.022300
     20 H31         22.9070    46.9260    19.0340 h1         1 GSE      -0.015800
     21 H32         22.8910    48.0360    17.6580 h1         1 GSE      -0.015800
     22 HO1         23.6730    48.9780    19.6480 ho         1 GSE       0.409000
     23 HO2         19.3500    47.4830    19.5940 ho         1 GSE       0.405000
     24 H111        16.2330    49.8720    15.1360 h1         1 GSE       0.020200
     25 H112        16.9370    50.2720    16.7140 h1         1 GSE       0.020200
     26 H12         17.0340    52.1620    15.0960 h1         1 GSE       0.014700
     27 HN1         18.8090    50.4500    13.5000 hn         1 GSE       0.382000
     28 HN2         18.6960    52.0380    13.2830 hn         1 GSE       0.382000
@<TRIPOS>BOND
     1     1     2 1   
     2     1     4 1   
     3     1    17 1   
     4     1    18 1   
     5     2     7 1   
     6     3     7 1   
     7     3    11 1   
     8     4     5 1   
     9     4    10 1   
    10     4    19 1   
    11     5     6 1   
    12     5    20 1   
    13     5    21 1   
    14     6    22 1   
    15     7     8 1   
    16     7     9 1   
    17    10    23 1   
    18    11    12 1   
    19    11    24 1   
    20    11    25 1   
    21    12    13 1   
    22    12    14 1   
    23    12    26 1   
    24    13    27 1   
    25    13    28 1   
    26    14    15 1   
    27    14    16 1   
@<TRIPOS>SUBSTRUCTURE
     1 GSE         1 TEMP              0 ****  ****    0 ROOT
