@<TRIPOS>MOLECULE
GSE
   28    27     1     0     0
SMALL
abcg2


@<TRIPOS>ATOM
      1 C1          20.2170    47.0140    17.5650 c3         1 GSE       0.247600
      2 O11         19.8190    48.1250    16.7680 os         1 GSE      -0.565400
      3 O12         18.5700    49.3980    15.0850 os         1 GSE      -0.591400
      4 C2          20.7100    47.4470    18.9330 c3         1 GSE       0.178300
      5 C3          21.9990    48.2560    18.9590 c3         1 GSE       0.143600
      6 O31         21.8370    49.5410    18.3650 oh         1 GSE      -0.566000
      7 P           18.9340    47.8610    15.4250 p5         1 GSE       1.419800
      8 O14         19.8180    47.3770    14.3200 o          1 GSE      -0.859500
      9 O13         17.7060    47.0820    15.7870 o          1 GSE      -0.859500
     10 O21         19.6330    48.1020    19.6050 oh         1 GSE      -0.614000
     11 C11         17.6480    50.1240    15.9200 c3         1 GSE       0.241600
     12 C12         17.7130    51.5950    15.5530 c3         1 GSE       0.018500
     13 N           17.2720    51.7790    14.1680 n8         1 GSE      -1.006200
     14 C13         19.1080    52.1930    15.9080 c          1 GSE       0.708000
     15 O16         19.7700    52.7290    14.9870 o          1 GSE      -0.752000
     16 O15         19.4450    52.1060    17.1180 o          1 GSE      -0.752000
     17 H11         19.3690    46.3380    17.7000 h1         1 GSE       0.014200
     18 H12A        21.0210    46.4630    17.0650 h1         1 GSE       0.014200
     19 H2          20.9560    46.5080    19.4500 h1         1 GSE      -0.022300
     20 H31         22.3100    48.3620    20.0060 h1         1 GSE      -0.015800
     21 H32         22.7730    47.6780    18.4390 h1         1 GSE      -0.015800
     22 HO1         22.6270    50.0590    18.5600 ho         1 GSE       0.409000
     23 HO2         19.9410    48.3740    20.4790 ho         1 GSE       0.405000
     24 H111        16.6410    49.7360    15.7520 h1         1 GSE       0.020200
     25 H112        17.9160    49.9930    16.9680 h1         1 GSE       0.020200
     26 H12         16.9960    52.1010    16.2090 h1         1 GSE       0.014700
     27 HN1         17.8620    51.2040    13.5730 hn         1 GSE       0.382000
     28 HN2         17.4830    52.7330    13.8920 hn         1 GSE       0.382000
@<TRIPOS>BOND
     1     1     2 1   
     2     1     4 1   
     3     1    17 1   
     4     1    18 1   
     5     2     7 1   
     6     3     7 1   
     7     3    11 1   
     8     4     5 1   
     9     4    10 1   
    10     4    19 1   
    11     5     6 1   
    12     5    20 1   
    13     5    21 1   
    14     6    22 1   
    15     7     8 1   
    16     7     9 1   
    17    10    23 1   
    18    11    12 1   
    19    11    24 1   
    20    11    25 1   
    21    12    13 1   
    22    12    14 1   
    23    12    26 1   
    24    13    27 1   
    25    13    28 1   
    26    14    15 1   
    27    14    16 1   
@<TRIPOS>SUBSTRUCTURE
     1 GSE         1 TEMP              0 ****  ****    0 ROOT
