@<TRIPOS>MOLECULE
GSF
   37    36     1     0     0
SMALL
No Charge or Current Charge


@<TRIPOS>ATOM
      1 CB1          3.4390     0.6380    -0.0200 c3         1 GSF      -0.045400
      2 CG1          2.2210     1.5930    -0.1260 c3         1 GSF      -0.142400
      3 CD1          0.9930     0.8760    -0.6970 c          1 GSF       0.613100
      4 OE1          0.8880     0.5890    -1.8820 o          1 GSF      -0.658100
      5 C1           5.7660     0.1530     0.9700 c          1 GSF       0.694000
      6 O11          5.9680    -0.1050     2.1490 o          1 GSF      -0.739500
      7 O12          6.4250    -0.3310     0.0590 o          1 GSF      -0.739500
      8 N1           5.2080     2.4270    -0.2170 n8         1 GSF      -1.001200
      9 CA1          4.7030     1.2760     0.6190 c3         1 GSF       0.011500
     10 N2          -0.0120     0.6250     0.2090 ns         1 GSF      -0.497900
     11 CA2         -1.3080    -0.0200    -0.1080 c3         1 GSF       0.049700
     12 CB2         -1.3070    -1.5300     0.2520 c3         1 GSF      -0.072100
     13 SG2         -0.0540    -2.5090    -0.6940 s4         1 GSF       0.521500
     14 O1S          1.2780    -2.3140    -0.0070 o          1 GSF      -0.503000
     15 O2S         -0.7300    -3.9590    -0.1410 oh         1 GSF      -0.645800
     16 C2          -2.4630     0.7170     0.6340 c          1 GSF       0.584100
     17 O2          -2.2760     1.4820     1.5740 o          1 GSF      -0.656100
     18 N3          -3.7310     0.4520     0.1600 ns         1 GSF      -0.461900
     19 CA3         -4.9820     1.0210     0.7150 c3         1 GSF      -0.056000
     20 C3          -6.2320     0.6490    -0.1320 c          1 GSF       0.713000
     21 O31         -7.2020     1.3910    -0.0790 o          1 GSF      -0.733500
     22 O32         -6.1830    -0.3440    -0.8460 o          1 GSF      -0.733500
     23 HB11         3.1460    -0.2270     0.5880 hc         1 GSF       0.059200
     24 HB12         3.6880     0.2470    -1.0140 hc         1 GSF       0.059200
     25 HG11         1.9970     1.9800     0.8750 hc         1 GSF       0.055700
     26 HG12         2.4790     2.4220    -0.7940 hc         1 GSF       0.055700
     27 HN11         6.0030     2.8650     0.2640 hn         1 GSF       0.377500
     28 HN12         5.6350     2.0420    -1.0690 hn         1 GSF       0.377500
     29 HA1          4.3910     1.7070     1.5800 h1         1 GSF       0.034700
     30 HN2          0.1390     0.9510     1.1580 hn         1 GSF       0.338500
     31 HA2         -1.5080     0.0880    -1.1830 h1         1 GSF       0.080700
     32 HB21        -1.1030    -1.6720     1.3200 h1         1 GSF       0.093200
     33 HB22        -2.2920    -1.9550     0.0250 h1         1 GSF       0.093200
     34 H2S         -1.5710    -4.0530    -0.6350 ho         1 GSF       0.463000
     35 HN3         -3.8130    -0.1860    -0.6260 hn         1 GSF       0.341500
     36 HA31        -5.1280     0.6420     1.7340 h1         1 GSF       0.034700
     37 HA32        -4.8930     2.1150     0.7510 h1         1 GSF       0.034700
@<TRIPOS>BOND
     1     1     2 1   
     2     1     9 1   
     3     1    23 1   
     4     1    24 1   
     5     2     3 1   
     6     2    25 1   
     7     2    26 1   
     8     3     4 2   
     9     3    10 1   
    10     5     6 1   
    11     5     7 1   
    12     5     9 1   
    13     8     9 1   
    14     8    27 1   
    15     8    28 1   
    16     9    29 1   
    17    10    11 1   
    18    10    30 1   
    19    11    12 1   
    20    11    16 1   
    21    11    31 1   
    22    12    13 1   
    23    12    32 1   
    24    12    33 1   
    25    13    14 2   
    26    13    15 1   
    27    15    34 1   
    28    16    17 2   
    29    16    18 1   
    30    18    19 1   
    31    18    35 1   
    32    19    20 1   
    33    19    36 1   
    34    19    37 1   
    35    20    21 1   
    36    20    22 1   
@<TRIPOS>SUBSTRUCTURE
     1 GSF         1 TEMP              0 ****  ****    0 ROOT
