@<TRIPOS>MOLECULE
GSF
   37    36     1     0     0
SMALL
abcg2


@<TRIPOS>ATOM
      1 CB1          3.4540     0.5160    -0.0930 c3         1 GSF      -0.045400
      2 CG1          2.1810     1.3100     0.1720 c3         1 GSF      -0.142400
      3 CD1          0.9600     0.6400    -0.4010 c          1 GSF       0.613100
      4 OE1          0.9350     0.1610    -1.5280 o          1 GSF      -0.658100
      5 C1           5.9160     0.2530     0.2710 c          1 GSF       0.694000
      6 O11          5.9370    -0.7780     0.9740 o          1 GSF      -0.739500
      7 O12          6.7570     0.5820    -0.5890 o          1 GSF      -0.739500
      8 N1           4.8470     2.5260    -0.0870 n8         1 GSF      -1.001200
      9 CA1          4.7020     1.1920     0.4770 c3         1 GSF       0.011500
     10 N2          -0.1220     0.6230     0.4000 ns         1 GSF      -0.497900
     11 CA2         -1.3530    -0.0080     0.0180 c3         1 GSF       0.049700
     12 CB2         -1.4410    -1.4820     0.4350 c3         1 GSF      -0.072100
     13 SG2         -0.0910    -2.4890    -0.2470 s4         1 GSF       0.521500
     14 O1S          1.0930    -2.2210     0.6040 o          1 GSF      -0.503000
     15 O2S         -0.7720    -3.8980     0.2790 oh         1 GSF      -0.645800
     16 C2          -2.5190     0.7270     0.6860 c          1 GSF       0.584100
     17 O2          -2.3730     1.2960     1.7600 o          1 GSF      -0.656100
     18 N3          -3.6710     0.6460     0.0300 ns         1 GSF      -0.461900
     19 CA3         -4.9210     1.1800     0.5100 c3         1 GSF      -0.056000
     20 C3          -6.0580     0.8810    -0.4890 c          1 GSF       0.713000
     21 O31         -7.1780     1.3050    -0.1580 o          1 GSF      -0.733500
     22 O32         -5.7550     0.2510    -1.5200 o          1 GSF      -0.733500
     23 HB11         3.3570    -0.4830     0.3340 hc         1 GSF       0.059200
     24 HB12         3.5800     0.3820    -1.1720 hc         1 GSF       0.059200
     25 HG11         2.0610     1.4730     1.2460 hc         1 GSF       0.055700
     26 HG12         2.2740     2.3020    -0.2790 hc         1 GSF       0.055700
     27 HN11         5.5900     3.0070     0.4060 hn         1 GSF       0.377500
     28 HN12         5.2020     2.4250    -1.0320 hn         1 GSF       0.377500
     29 HA1          4.5530     1.3070     1.5570 h1         1 GSF       0.034700
     30 HN2         -0.0530     0.9700     1.3440 hn         1 GSF       0.338500
     31 HA2         -1.4540     0.0620    -1.0670 h1         1 GSF       0.080700
     32 HB21        -1.3950    -1.5930     1.5220 h1         1 GSF       0.093200
     33 HB22        -2.3740    -1.9130     0.0690 h1         1 GSF       0.093200
     34 H2S         -0.5330    -4.6050    -0.3380 ho         1 GSF       0.463000
     35 HN3         -3.7300     0.1840    -0.8680 hn         1 GSF       0.341500
     36 HA31        -5.1770     0.7490     1.4820 h1         1 GSF       0.034700
     37 HA32        -4.8480     2.2610     0.6570 h1         1 GSF       0.034700
@<TRIPOS>BOND
     1     1     2 1   
     2     1     9 1   
     3     1    23 1   
     4     1    24 1   
     5     2     3 1   
     6     2    25 1   
     7     2    26 1   
     8     3     4 2   
     9     3    10 1   
    10     5     6 1   
    11     5     7 1   
    12     5     9 1   
    13     8     9 1   
    14     8    27 1   
    15     8    28 1   
    16     9    29 1   
    17    10    11 1   
    18    10    30 1   
    19    11    12 1   
    20    11    16 1   
    21    11    31 1   
    22    12    13 1   
    23    12    32 1   
    24    12    33 1   
    25    13    14 2   
    26    13    15 1   
    27    15    34 1   
    28    16    17 2   
    29    16    18 1   
    30    18    19 1   
    31    18    35 1   
    32    19    20 1   
    33    19    36 1   
    34    19    37 1   
    35    20    21 1   
    36    20    22 1   
@<TRIPOS>SUBSTRUCTURE
     1 GSF         1 TEMP              0 ****  ****    0 ROOT
