@<TRIPOS>MOLECULE
GSI
   59    62     1     0     0
SMALL
No Charge or Current Charge


@<TRIPOS>ATOM
      1 Cl1         13.5060     7.8920    26.5580 cl         1 GSI      -0.144000
      2 C1          11.9690     7.5740    25.8160 cc         1 GSI      -0.025000
      3 C2          11.7470     6.7200    24.7690 cd         1 GSI      -0.121000
      4 C3          10.3820     6.6660    24.3750 cd         1 GSI      -0.117000
      5 S2          10.4830     8.3470    26.3530 ss         1 GSI       0.221000
      6 C4           9.5610     7.4800    25.1200 cc         1 GSI      -0.205300
      7 C5           8.0760     7.6660    24.9780 c3         1 GSI       0.036900
      8 C6           7.7410     8.9110    24.1240 c3         1 GSI      -0.331400
      9 S1           5.9830     9.2470    23.9210 s6         1 GSI       1.199100
     10 O2           5.7940    10.6700    23.6390 o          1 GSI      -0.527500
     11 O1           5.2180     8.6110    24.9960 o          1 GSI      -0.527500
     12 N1           5.5540     8.4670    22.5040 n7         1 GSI      -0.891300
     13 C12          5.6100     6.9610    22.5410 c5         1 GSI       0.156500
     14 C13          4.3550     6.4650    21.7760 c5         1 GSI      -0.094400
     15 C14          4.7740     5.0170    21.3970 c5         1 GSI       0.103000
     16 C50          6.7830     6.2850    21.7630 c          1 GSI       0.538000
     17 O3           7.9620     6.6120    21.7290 o          1 GSI      -0.526000
     18 N2           6.2010     5.2040    21.0740 n          1 GSI      -0.233400
     19 C15          6.9150     4.2560    20.2520 ca         1 GSI      -0.084000
     20 C21          6.8150     2.8860    20.5730 ca         1 GSI      -0.088000
     21 C24          7.6160     1.9330    19.9210 ca         1 GSI      -0.120000
     22 C27          8.5600     2.3340    18.9600 ca         1 GSI       0.029800
     23 C26          8.7210     3.7030    18.6860 ca         1 GSI      -0.152000
     24 C22          7.9250     4.6550    19.3410 ca         1 GSI       0.197000
     25 F1           8.0790     5.9570    19.0080 f          1 GSI      -0.155000
     26 N4           9.3470     1.3830    18.3140 na         1 GSI      -0.092300
     27 C9          10.1800     0.5100    18.9650 cc         1 GSI      -0.220000
     28 C7          10.6840    -0.2740    17.9570 cd         1 GSI       0.235900
     29 N3          10.1520     0.0870    16.7270 nd         1 GSI      -0.639000
     30 C8           9.3140     1.0940    16.9640 cc         1 GSI       0.415800
     31 C10          8.4590     1.8000    15.9120 c3         1 GSI       0.144500
     32 N5           7.1340     1.1780    15.6010 n3         1 GSI      -0.689600
     33 C11          6.2410     1.0730    16.7780 c3         1 GSI       0.148600
     34 C16          6.4670     1.8250    14.4490 c3         1 GSI       0.148600
     35 H2          12.5340     6.1440    24.2910 ha         1 GSI       0.146000
     36 H3          10.0230     6.0430    23.5610 ha         1 GSI       0.147000
     37 H5C1         7.6410     6.7630    24.5370 hc         1 GSI       0.062200
     38 H5C2         7.6270     7.7700    25.9750 hc         1 GSI       0.062200
     39 H6C1         8.1390     9.8010    24.6220 h1         1 GSI       0.109700
     40 H6C2         8.1840     8.8450    23.1250 h1         1 GSI       0.109700
     41 H1           6.2530     8.8340    21.8580 hn         1 GSI       0.503000
     42 H12          5.5980     6.5420    23.5580 h1         1 GSI       0.099700
     43 H131         3.4440     6.4990    22.3830 hc         1 GSI       0.076200
     44 H132         4.1720     7.0590    20.8730 hc         1 GSI       0.076200
     45 H141         4.6530     4.3250    22.2420 h1         1 GSI       0.058200
     46 H142         4.2020     4.6310    20.5420 h1         1 GSI       0.058200
     47 H21          6.1140     2.5500    21.3340 ha         1 GSI       0.128000
     48 H24          7.5060     0.8790    20.1680 ha         1 GSI       0.138000
     49 H26          9.4660     4.0360    17.9690 ha         1 GSI       0.151000
     50 H9          10.3550     0.5150    20.0340 h4         1 GSI       0.161000
     51 H7          11.3950    -1.0860    18.0480 h4         1 GSI       0.042100
     52 H101         8.3090     2.8420    16.2200 h1         1 GSI       0.041200
     53 H102         9.0590     1.8410    14.9930 h1         1 GSI       0.041200
     54 H111         5.2890     0.6000    16.5020 h1         1 GSI       0.033200
     55 H112         6.7000     0.4580    17.5640 h1         1 GSI       0.033200
     56 H113         6.0230     2.0650    17.1960 h1         1 GSI       0.033200
     57 H161         6.2150     2.8700    14.6780 h1         1 GSI       0.033200
     58 H162         7.1190     1.8140    13.5660 h1         1 GSI       0.033200
     59 H163         5.5400     1.2970    14.1900 h1         1 GSI       0.033200
@<TRIPOS>BOND
     1     1     2 1   
     2     2     3 2   
     3     2     5 1   
     4     3     4 1   
     5     3    35 1   
     6     4     6 2   
     7     4    36 1   
     8     5     6 1   
     9     6     7 1   
    10     7     8 1   
    11     7    37 1   
    12     7    38 1   
    13     8     9 1   
    14     8    39 1   
    15     8    40 1   
    16     9    10 2   
    17     9    11 2   
    18     9    12 1   
    19    12    13 1   
    20    12    41 1   
    21    13    14 1   
    22    13    16 1   
    23    13    42 1   
    24    14    15 1   
    25    14    43 1   
    26    14    44 1   
    27    15    18 1   
    28    15    45 1   
    29    15    46 1   
    30    16    17 2   
    31    16    18 1   
    32    18    19 1   
    33    19    20 ar  
    34    19    24 ar  
    35    20    21 ar  
    36    20    47 1   
    37    21    22 ar  
    38    21    48 1   
    39    22    23 ar  
    40    22    26 1   
    41    23    24 ar  
    42    23    49 1   
    43    24    25 1   
    44    26    27 1   
    45    26    30 1   
    46    27    28 2   
    47    27    50 1   
    48    28    29 1   
    49    28    51 1   
    50    29    30 2   
    51    30    31 1   
    52    31    32 1   
    53    31    52 1   
    54    31    53 1   
    55    32    33 1   
    56    32    34 1   
    57    33    54 1   
    58    33    55 1   
    59    33    56 1   
    60    34    57 1   
    61    34    58 1   
    62    34    59 1   
@<TRIPOS>SUBSTRUCTURE
     1 GSI         1 TEMP              0 ****  ****    0 ROOT
