@<TRIPOS>MOLECULE
GSI
   59    62     1     0     0
SMALL
abcg2


@<TRIPOS>ATOM
      1 CL1         13.8050     8.0640    26.0720 cl         1 GSI      -0.144000
      2 C1          12.2490     7.6940    25.4690 cc         1 GSI      -0.025000
      3 C2          11.9360     6.7890    24.5070 cd         1 GSI      -0.121000
      4 C3          10.5350     6.7460    24.2660 cd         1 GSI      -0.117000
      5 S2          10.8610     8.4950    26.0960 ss         1 GSI       0.221000
      6 C4           9.8190     7.6020    25.0450 cc         1 GSI      -0.205300
      7 C5           8.3450     7.8450    25.0340 c3         1 GSI       0.036900
      8 C6           8.0120     9.1040    24.2370 c3         1 GSI      -0.331400
      9 S1           6.2460     9.3790    24.0270 s6         1 GSI       1.199100
     10 O2           6.0690    10.7730    23.6560 o          1 GSI      -0.527500
     11 O1           5.5600     8.8420    25.1950 o          1 GSI      -0.527500
     12 N1           5.7280     8.5120    22.7310 n7         1 GSI      -0.891300
     13 C12          5.5430     7.0840    22.7450 c5         1 GSI       0.156500
     14 C13          4.2520     6.6070    22.0880 c5         1 GSI      -0.094400
     15 C14          4.5970     5.1860    21.6520 c5         1 GSI       0.103000
     16 C50          6.6280     6.3270    21.9850 c          1 GSI       0.538000
     17 O3           7.8090     6.6020    21.9540 o          1 GSI      -0.526000
     18 N2           6.0280     5.2800    21.3730 n          1 GSI      -0.233400
     19 C15          6.7350     4.2880    20.6780 ca         1 GSI      -0.084000
     20 C21          6.6750     2.9540    21.0620 ca         1 GSI      -0.088000
     21 C24          7.3560     1.9780    20.3550 ca         1 GSI      -0.120000
     22 C27          8.1390     2.3380    19.2660 ca         1 GSI       0.029800
     23 C26          8.2260     3.6670    18.8730 ca         1 GSI      -0.152000
     24 C22          7.5020     4.6140    19.5670 ca         1 GSI       0.197000
     25 F1           7.5400     5.8800    19.1520 f          1 GSI      -0.155000
     26 N4           8.8670     1.3510    18.5690 na         1 GSI      -0.092300
     27 C9           9.7250     0.4470    19.1520 cc         1 GSI      -0.220000
     28 C7          10.2100    -0.2990    18.1250 cd         1 GSI       0.235900
     29 N3           9.6740     0.1180    16.9380 nd         1 GSI      -0.639000
     30 C8           8.8710     1.1050    17.2260 cc         1 GSI       0.415800
     31 C10          8.0350     1.8770    16.2520 c3         1 GSI       0.144500
     32 N5           7.7310     1.1140    15.0650 n3         1 GSI      -0.689600
     33 C11          6.8320     0.0120    15.3370 c3         1 GSI       0.148600
     34 C16          7.1990     1.9750    14.0300 c3         1 GSI       0.148600
     35 H2          12.6630     6.1780    23.9940 ha         1 GSI       0.146000
     36 H3          10.0720     6.1000    23.5330 ha         1 GSI       0.147000
     37 H5C1         7.8750     6.9670    24.5950 hc         1 GSI       0.062200
     38 H5C2         7.9620     7.9400    26.0490 hc         1 GSI       0.062200
     39 H6C1         8.3830     9.9960    24.7450 h1         1 GSI       0.109700
     40 H6C2         8.4420     9.0760    23.2360 h1         1 GSI       0.109700
     41 H1           5.9680     8.9320    21.8400 hn         1 GSI       0.503000
     42 H12          5.5660     6.7320    23.7810 h1         1 GSI       0.099700
     43 H131         3.4000     6.6400    22.7630 hc         1 GSI       0.076200
     44 H132         4.0270     7.2220    21.2150 hc         1 GSI       0.076200
     45 H141         4.4020     4.4620    22.4470 h1         1 GSI       0.058200
     46 H142         4.0590     4.8720    20.7600 h1         1 GSI       0.058200
     47 H21          6.0820     2.6720    21.9220 ha         1 GSI       0.128000
     48 H24          7.2780     0.9410    20.6540 ha         1 GSI       0.138000
     49 H26          8.8440     3.9710    18.0380 ha         1 GSI       0.151000
     50 H9           9.9170     0.4420    20.2120 h4         1 GSI       0.161000
     51 H7          10.9180    -1.1120    18.1770 h4         1 GSI       0.042100
     52 H101         7.1240     2.2410    16.7570 h1         1 GSI       0.041200
     53 H102         8.5840     2.7750    15.9460 h1         1 GSI       0.041200
     54 H111         6.6410    -0.5390    14.4150 h1         1 GSI       0.033200
     55 H112         7.2760    -0.6820    16.0490 h1         1 GSI       0.033200
     56 H113         5.8600     0.3400    15.7380 h1         1 GSI       0.033200
     57 H161         6.2420     2.4460    14.3030 h1         1 GSI       0.033200
     58 H162         7.9080     2.7710    13.8000 h1         1 GSI       0.033200
     59 H163         7.0360     1.3990    13.1180 h1         1 GSI       0.033200
@<TRIPOS>BOND
     1     1     2 1   
     2     2     3 2   
     3     2     5 1   
     4     3     4 1   
     5     3    35 1   
     6     4     6 2   
     7     4    36 1   
     8     5     6 1   
     9     6     7 1   
    10     7     8 1   
    11     7    37 1   
    12     7    38 1   
    13     8     9 1   
    14     8    39 1   
    15     8    40 1   
    16     9    10 2   
    17     9    11 2   
    18     9    12 1   
    19    12    13 1   
    20    12    41 1   
    21    13    14 1   
    22    13    16 1   
    23    13    42 1   
    24    14    15 1   
    25    14    43 1   
    26    14    44 1   
    27    15    18 1   
    28    15    45 1   
    29    15    46 1   
    30    16    17 2   
    31    16    18 1   
    32    18    19 1   
    33    19    20 ar  
    34    19    24 ar  
    35    20    21 ar  
    36    20    47 1   
    37    21    22 ar  
    38    21    48 1   
    39    22    23 ar  
    40    22    26 1   
    41    23    24 ar  
    42    23    49 1   
    43    24    25 1   
    44    26    27 1   
    45    26    30 1   
    46    27    28 2   
    47    27    50 1   
    48    28    29 1   
    49    28    51 1   
    50    29    30 2   
    51    30    31 1   
    52    31    32 1   
    53    31    52 1   
    54    31    53 1   
    55    32    33 1   
    56    32    34 1   
    57    33    54 1   
    58    33    55 1   
    59    33    56 1   
    60    34    57 1   
    61    34    58 1   
    62    34    59 1   
@<TRIPOS>SUBSTRUCTURE
     1 GSI         1 TEMP              0 ****  ****    0 ROOT
