@<TRIPOS>MOLECULE
GSJ
   67    69     1     0     0
SMALL
No Charge or Current Charge


@<TRIPOS>ATOM
      1 C23          4.5930    -4.6410    -5.4860 c3         1 GSJ      -0.390100
      2 S2           5.7160    -5.5240    -4.4210 s6         1 GSJ       1.192100
      3 O5           6.2270    -6.7040    -5.1220 o          1 GSJ      -0.527500
      4 O6           6.6360    -4.5880    -3.7750 o          1 GSJ      -0.527500
      5 N4           4.6990    -6.0770    -3.2280 n7         1 GSJ      -0.852300
      6 C22          3.7640    -7.1770    -3.5360 c3         1 GSJ       0.189800
      7 C11          2.4660    -7.0110    -2.7160 c3         1 GSJ       0.089000
      8 N3           1.5000    -6.0430    -3.3270 n          1 GSJ      -0.412800
      9 C19          0.2410    -6.6080    -3.8980 c3         1 GSJ       0.111700
     10 C20         -0.7200    -7.0840    -2.7890 c3         1 GSJ      -0.111600
     11 C21          0.5000    -7.7210    -4.9390 c3         1 GSJ      -0.111600
     12 C18          1.6580    -4.6510    -3.0610 c          1 GSJ       0.577100
     13 O4           2.6370    -4.2700    -2.4280 o          1 GSJ      -0.574100
     14 C16          0.6640    -3.6040    -3.6650 c3         1 GSJ       0.048700
     15 C17          0.8850    -3.4520    -5.1940 c3         1 GSJ      -0.102100
     16 N2           0.7010    -2.2920    -2.9510 n          1 GSJ      -0.394800
     17 C15          0.2420    -2.2080    -1.6320 c          1 GSJ       0.532000
     18 O3          -0.2410    -3.1400    -1.0000 o          1 GSJ      -0.553000
     19 C12          0.5140    -0.7340    -1.2020 c5         1 GSJ       0.145500
     20 C13          1.7120    -0.3340    -2.1030 c5         1 GSJ      -0.092400
     21 C14          1.3900    -1.0740    -3.4340 c5         1 GSJ       0.105000
     22 N1           0.9440    -0.4820     0.2180 n7         1 GSJ      -0.871300
     23 S1          -0.1070    -0.6190     1.5090 sy         1 GSJ       1.168600
     24 O2           0.2210     0.5050     2.3900 o          1 GSJ      -0.535000
     25 O1          -0.0210    -2.0130     1.9440 o          1 GSJ      -0.535000
     26 C6          -1.7010    -0.3100     0.7320 ca         1 GSJ      -0.289500
     27 C7          -2.5750    -1.3760     0.4330 ca         1 GSJ      -0.020000
     28 C8          -3.8080    -1.1190    -0.1890 ca         1 GSJ      -0.103000
     29 C9          -4.1780     0.1990    -0.5150 ca         1 GSJ       0.015000
     30 C10         -5.4120     0.4560    -1.1410 ca         1 GSJ      -0.105000
     31 C4          -3.3060     1.2690    -0.2120 ca         1 GSJ      -0.064000
     32 C5          -2.0710     1.0120     0.4130 ca         1 GSJ       0.027000
     33 C3          -3.6760     2.5880    -0.5390 ca         1 GSJ      -0.074000
     34 C2          -4.9100     2.8380    -1.1650 ca         1 GSJ      -0.113000
     35 C1          -5.7740     1.7730    -1.4640 ca         1 GSJ       0.136000
     36 Cl1         -7.3170     2.0900    -2.2470 cl         1 GSJ      -0.198000
     37 H231         5.1820    -4.2480    -6.3220 h1         1 GSJ       0.098700
     38 H232         3.8300    -5.3400    -5.8430 h1         1 GSJ       0.098700
     39 H233         4.1510    -3.8240    -4.9060 h1         1 GSJ       0.098700
     40 H4           4.1340    -5.2390    -3.0570 hn         1 GSJ       0.480000
     41 H221         3.4920    -7.2030    -4.6000 h1         1 GSJ       0.052200
     42 H222         4.2310    -8.1410    -3.2960 h1         1 GSJ       0.052200
     43 H111         1.9930    -7.9970    -2.6330 h1         1 GSJ       0.070700
     44 H112         2.7100    -6.7060    -1.6900 h1         1 GSJ       0.070700
     45 H19         -0.2930    -5.8310    -4.4520 h1         1 GSJ       0.052700
     46 H201        -1.6720    -7.4130    -3.2200 hc         1 GSJ       0.046533
     47 H202        -0.2940    -7.9210    -2.2230 hc         1 GSJ       0.046533
     48 H203        -0.9300    -6.2670    -2.0880 hc         1 GSJ       0.046533
     49 H211         1.1880    -7.3660    -5.7150 hc         1 GSJ       0.046533
     50 H212        -0.4380    -8.0100    -5.4280 hc         1 GSJ       0.046533
     51 H213         0.9270    -8.6210    -4.4810 hc         1 GSJ       0.046533
     52 H16         -0.3460    -4.0010    -3.5110 h1         1 GSJ       0.083700
     53 H171         0.7820    -4.4090    -5.7170 hc         1 GSJ       0.050700
     54 H172         0.1520    -2.7570    -5.6200 hc         1 GSJ       0.050700
     55 H173         1.8890    -3.0700    -5.4120 hc         1 GSJ       0.050700
     56 H141         0.7210    -0.4830    -4.0730 h1         1 GSJ       0.057200
     57 H142         2.3050    -1.3000    -3.9980 h1         1 GSJ       0.057200
     58 H12         -0.3680    -0.1440    -1.4860 h1         1 GSJ       0.097700
     59 H131         2.6620    -0.6980    -1.6920 hc         1 GSJ       0.075700
     60 H132         1.8050     0.7500    -2.2330 hc         1 GSJ       0.075700
     61 H1           1.6650    -1.1450     0.5010 hn         1 GSJ       0.500000
     62 H7          -2.3050    -2.4020     0.6760 ha         1 GSJ       0.129000
     63 H5          -1.3980     1.8380     0.6400 ha         1 GSJ       0.136000
     64 H8          -4.4750    -1.9470    -0.4180 ha         1 GSJ       0.119000
     65 H10         -6.0890    -0.3610    -1.3780 ha         1 GSJ       0.133000
     66 H3          -3.0110     3.4190    -0.3100 ha         1 GSJ       0.121000
     67 H2          -5.1960     3.8560    -1.4170 ha         1 GSJ       0.131000
@<TRIPOS>BOND
     1     1     2 1   
     2     1    37 1   
     3     1    38 1   
     4     1    39 1   
     5     2     3 2   
     6     2     4 2   
     7     2     5 1   
     8     5     6 1   
     9     5    40 1   
    10     6     7 1   
    11     6    41 1   
    12     6    42 1   
    13     7     8 1   
    14     7    43 1   
    15     7    44 1   
    16     8     9 1   
    17     8    12 1   
    18     9    10 1   
    19     9    11 1   
    20     9    45 1   
    21    10    46 1   
    22    10    47 1   
    23    10    48 1   
    24    11    49 1   
    25    11    50 1   
    26    11    51 1   
    27    12    13 2   
    28    12    14 1   
    29    14    15 1   
    30    14    16 1   
    31    14    52 1   
    32    15    53 1   
    33    15    54 1   
    34    15    55 1   
    35    16    17 1   
    36    16    21 1   
    37    17    18 2   
    38    17    19 1   
    39    19    20 1   
    40    19    22 1   
    41    19    58 1   
    42    20    21 1   
    43    20    59 1   
    44    20    60 1   
    45    21    56 1   
    46    21    57 1   
    47    22    23 1   
    48    22    61 1   
    49    23    24 2   
    50    23    25 2   
    51    23    26 1   
    52    26    27 ar  
    53    26    32 ar  
    54    27    28 ar  
    55    27    62 1   
    56    28    29 ar  
    57    28    64 1   
    58    29    30 ar  
    59    29    31 ar  
    60    30    35 ar  
    61    30    65 1   
    62    31    32 ar  
    63    31    33 ar  
    64    32    63 1   
    65    33    34 ar  
    66    33    66 1   
    67    34    35 ar  
    68    34    67 1   
    69    35    36 1   
@<TRIPOS>SUBSTRUCTURE
     1 GSJ         1 TEMP              0 ****  ****    0 ROOT
