@<TRIPOS>MOLECULE
GSJ
   67    69     1     0     0
SMALL
abcg2


@<TRIPOS>ATOM
      1 C23          4.7390    -7.2550    -6.3840 c3         1 GSJ      -0.390100
      2 S2           5.1150    -6.8160    -4.7010 s6         1 GSJ       1.192100
      3 O5           5.3490    -8.0440    -3.9560 o          1 GSJ      -0.527500
      4 O6           6.1390    -5.7840    -4.7200 o          1 GSJ      -0.527500
      5 N4           3.7650    -6.1170    -4.0690 n7         1 GSJ      -0.852300
      6 C22          2.5590    -6.9170    -3.8880 c3         1 GSJ       0.189800
      7 C11          1.5360    -6.1720    -3.0410 c3         1 GSJ       0.089000
      8 N3           1.1360    -4.8790    -3.5810 n          1 GSJ      -0.412800
      9 C19         -0.1000    -4.8310    -4.3810 c3         1 GSJ       0.111700
     10 C20         -1.3310    -4.8890    -3.4820 c3         1 GSJ      -0.111600
     11 C21         -0.1300    -5.9010    -5.4630 c3         1 GSJ      -0.111600
     12 C18          1.6900    -3.7670    -3.0320 c          1 GSJ       0.577100
     13 O4           2.5690    -3.8170    -2.1880 o          1 GSJ      -0.574100
     14 C16          1.2480    -2.3920    -3.5570 c3         1 GSJ       0.048700
     15 C17          1.9600    -2.0870    -4.8730 c3         1 GSJ      -0.102100
     16 N2           1.5300    -1.4010    -2.5500 n          1 GSJ      -0.394800
     17 C15          0.7300    -1.2700    -1.4800 c          1 GSJ       0.532000
     18 O3          -0.2650    -1.9280    -1.2380 o          1 GSJ      -0.553000
     19 C12          1.2950    -0.1360    -0.6290 c5         1 GSJ       0.145500
     20 C13          2.7640    -0.1190    -1.0340 c5         1 GSJ      -0.092400
     21 C14          2.7340    -0.5870    -2.4880 c5         1 GSJ       0.105000
     22 N1           1.0860    -0.3010     0.7900 n7         1 GSJ      -0.871300
     23 S1          -0.1510     0.4500     1.5700 sy         1 GSJ       1.168600
     24 O2          -0.1370     1.8400     1.1440 o          1 GSJ      -0.535000
     25 O1           0.0110     0.1110     2.9730 o          1 GSJ      -0.535000
     26 C6          -1.6600    -0.2780     1.0030 ca         1 GSJ      -0.289500
     27 C7          -2.0110    -1.5580     1.4830 ca         1 GSJ      -0.020000
     28 C8          -3.1420    -2.1590     1.0180 ca         1 GSJ      -0.103000
     29 C9          -3.9640    -1.5160     0.0620 ca         1 GSJ       0.015000
     30 C10         -5.1350    -2.1280    -0.4340 ca         1 GSJ      -0.105000
     31 C4          -3.6030    -0.2270    -0.4030 ca         1 GSJ      -0.064000
     32 C5          -2.4290     0.3830     0.0900 ca         1 GSJ       0.027000
     33 C3          -4.4290     0.4190    -1.3510 ca         1 GSJ      -0.074000
     34 C2          -5.5590    -0.1860    -1.8240 ca         1 GSJ      -0.113000
     35 C1          -5.9020    -1.4690    -1.3540 ca         1 GSJ       0.136000
     36 CL1         -7.3360    -2.2160    -1.9700 cl         1 GSJ      -0.198000
     37 H231         5.6280    -7.7080    -6.8200 h1         1 GSJ       0.098700
     38 H232         3.9190    -7.9680    -6.4070 h1         1 GSJ       0.098700
     39 H233         4.4750    -6.3560    -6.9370 h1         1 GSJ       0.098700
     40 H4           3.5980    -5.2040    -4.4780 hn         1 GSJ       0.480000
     41 H221         2.1190    -7.2100    -4.8440 h1         1 GSJ       0.052200
     42 H222         2.8240    -7.8310    -3.3570 h1         1 GSJ       0.052200
     43 H111         0.6550    -6.8090    -2.9500 h1         1 GSJ       0.070700
     44 H112         1.9290    -6.0350    -2.0360 h1         1 GSJ       0.070700
     45 H19         -0.1110    -3.8800    -4.9120 h1         1 GSJ       0.052700
     46 H201        -2.2400    -4.8030    -4.0770 hc         1 GSJ       0.046533
     47 H202        -1.3830    -5.8340    -2.9380 hc         1 GSJ       0.046533
     48 H203        -1.3210    -4.0770    -2.7540 hc         1 GSJ       0.046533
     49 H211         0.7420    -5.8340    -6.1140 hc         1 GSJ       0.046533
     50 H212        -1.0150    -5.7520    -6.0820 hc         1 GSJ       0.046533
     51 H213        -0.1880    -6.9120    -5.0600 hc         1 GSJ       0.046533
     52 H16          0.1720    -2.3630    -3.7290 h1         1 GSJ       0.083700
     53 H171         1.6740    -2.8110    -5.6360 hc         1 GSJ       0.050700
     54 H172         1.6860    -1.0980    -5.2380 hc         1 GSJ       0.050700
     55 H173         3.0430    -2.1300    -4.7680 hc         1 GSJ       0.050700
     56 H141         2.6730     0.2550    -3.1820 h1         1 GSJ       0.057200
     57 H142         3.6190    -1.1690    -2.7440 h1         1 GSJ       0.057200
     58 H12          0.8150     0.7940    -0.9490 h1         1 GSJ       0.097700
     59 H131         3.3170    -0.8370    -0.4240 hc         1 GSJ       0.075700
     60 H132         3.2260     0.8580    -0.9150 hc         1 GSJ       0.075700
     61 H1           1.2980    -1.2190     1.1650 hn         1 GSJ       0.500000
     62 H7          -1.3920    -2.0620     2.2120 ha         1 GSJ       0.129000
     63 H5          -2.1600     1.3680    -0.2700 ha         1 GSJ       0.136000
     64 H8          -3.4200    -3.1410     1.3790 ha         1 GSJ       0.119000
     65 H10         -5.4110    -3.1140    -0.0830 ha         1 GSJ       0.133000
     66 H3          -4.1580     1.4050    -1.7060 ha         1 GSJ       0.121000
     67 H2          -6.1870     0.3100    -2.5510 ha         1 GSJ       0.131000
@<TRIPOS>BOND
     1     1     2 1   
     2     1    37 1   
     3     1    38 1   
     4     1    39 1   
     5     2     3 2   
     6     2     4 2   
     7     2     5 1   
     8     5     6 1   
     9     5    40 1   
    10     6     7 1   
    11     6    41 1   
    12     6    42 1   
    13     7     8 1   
    14     7    43 1   
    15     7    44 1   
    16     8     9 1   
    17     8    12 1   
    18     9    10 1   
    19     9    11 1   
    20     9    45 1   
    21    10    46 1   
    22    10    47 1   
    23    10    48 1   
    24    11    49 1   
    25    11    50 1   
    26    11    51 1   
    27    12    13 2   
    28    12    14 1   
    29    14    15 1   
    30    14    16 1   
    31    14    52 1   
    32    15    53 1   
    33    15    54 1   
    34    15    55 1   
    35    16    17 1   
    36    16    21 1   
    37    17    18 2   
    38    17    19 1   
    39    19    20 1   
    40    19    22 1   
    41    19    58 1   
    42    20    21 1   
    43    20    59 1   
    44    20    60 1   
    45    21    56 1   
    46    21    57 1   
    47    22    23 1   
    48    22    61 1   
    49    23    24 2   
    50    23    25 2   
    51    23    26 1   
    52    26    27 ar  
    53    26    32 ar  
    54    27    28 ar  
    55    27    62 1   
    56    28    29 ar  
    57    28    64 1   
    58    29    30 ar  
    59    29    31 ar  
    60    30    35 ar  
    61    30    65 1   
    62    31    32 ar  
    63    31    33 ar  
    64    32    63 1   
    65    33    34 ar  
    66    33    66 1   
    67    34    35 ar  
    68    34    67 1   
    69    35    36 1   
@<TRIPOS>SUBSTRUCTURE
     1 GSJ         1 TEMP              0 ****  ****    0 ROOT
