@<TRIPOS>MOLECULE
GSK
   55    58     1     0     0
SMALL
abcg2


@<TRIPOS>ATOM
      1 CL1         13.8410     6.7650    25.7080 cl         1 GSK      -0.205000
      2 C1          12.1490     7.0740    25.3890 ca         1 GSK       0.141000
      3 C2          11.1880     6.3760    26.1490 ca         1 GSK      -0.110000
      4 C3           9.8580     6.6040    25.9160 ca         1 GSK      -0.075000
      5 C4           9.4410     7.5250    24.9240 ca         1 GSK      -0.065000
      6 C5           8.0740     7.7670    24.6630 ca         1 GSK       0.022000
      7 C9          10.4280     8.2200    24.1640 ca         1 GSK       0.014000
      8 C10         11.7960     7.9750    24.4210 ca         1 GSK      -0.102000
      9 C8          10.0100     9.1400    23.1690 ca         1 GSK      -0.102000
     10 C7           8.6820     9.3540    22.9250 ca         1 GSK      -0.021000
     11 C6           7.7150     8.6570    23.6840 ca         1 GSK      -0.300500
     12 S1           6.0030     8.8780    23.2980 sy         1 GSK       1.192600
     13 O2           5.8230    10.2080    22.7650 o          1 GSK      -0.542000
     14 O1           5.2360     8.4500    24.4430 o          1 GSK      -0.542000
     15 N1           5.6280     7.8620    22.0700 n7         1 GSK      -0.873300
     16 C12          5.6960     6.4200    22.2420 c5         1 GSK       0.146500
     17 C13          4.5080     5.6540    21.6580 c5         1 GSK      -0.090400
     18 C14          5.0920     4.2630    21.3840 c5         1 GSK       0.104000
     19 C15          6.8980     5.7670    21.5460 c          1 GSK       0.531000
     20 O3           8.0050     6.2700    21.3930 o          1 GSK      -0.554000
     21 N2           6.5090     4.5450    21.1390 n          1 GSK      -0.397800
     22 C16          7.4430     3.6140    20.5320 c3         1 GSK       0.049700
     23 C17          7.1610     2.1710    20.9580 c3         1 GSK      -0.101100
     24 C18          7.3850     3.7440    18.9980 c          1 GSK       0.592100
     25 O4           6.3540     4.1450    18.4570 o          1 GSK      -0.604100
     26 N3           8.4770     3.3760    18.2940 n          1 GSK      -0.413800
     27 C19          9.7580     2.9210    18.8320 c6         1 GSK       0.063000
     28 C20         10.1330     1.5830    18.2080 c6         1 GSK       0.134100
     29 O5          10.1420     1.6530    16.7860 os         1 GSK      -0.450000
     30 C22          8.8700     2.0550    16.2810 c6         1 GSK       0.134100
     31 C23          8.4620     3.4130    16.8320 c6         1 GSK       0.063000
     32 H2          11.5080     5.6710    26.9040 ha         1 GSK       0.132000
     33 H3           9.1080     6.0770    26.4920 ha         1 GSK       0.121000
     34 H5           7.3220     7.2440    25.2370 ha         1 GSK       0.132000
     35 H10         12.5510     8.5000    23.8510 ha         1 GSK       0.134000
     36 H8          10.7610     9.6710    22.5970 ha         1 GSK       0.121000
     37 H7           8.3660    10.0510    22.1620 ha         1 GSK       0.134000
     38 H1           5.9400     8.2110    21.1700 hn         1 GSK       0.500000
     39 H12          5.7840     6.2090    23.3100 h1         1 GSK       0.085700
     40 H131         4.2140     6.1240    20.7180 hc         1 GSK       0.076700
     41 H132         3.6510     5.6290    22.3260 hc         1 GSK       0.076700
     42 H141         4.6470     3.7870    20.5150 h1         1 GSK       0.059200
     43 H142         4.9780     3.6020    22.2470 h1         1 GSK       0.059200
     44 H16          8.4250     3.9150    20.8870 h1         1 GSK       0.087700
     45 H171         7.9260     1.5050    20.5620 hc         1 GSK       0.050700
     46 H172         6.1940     1.8330    20.5860 hc         1 GSK       0.050700
     47 H173         7.1670     2.0940    22.0460 hc         1 GSK       0.050700
     48 H191         9.7210     2.8120    19.9110 h1         1 GSK       0.066950
     49 H192        10.5220     3.6660    18.5890 h1         1 GSK       0.066950
     50 H201         9.4220     0.8130    18.5350 h1         1 GSK       0.055200
     51 H202        11.1370     1.2970    18.5180 h1         1 GSK       0.055200
     52 H221         8.9620     2.1000    15.1960 h1         1 GSK       0.055200
     53 H222         8.1150     1.3050    16.5470 h1         1 GSK       0.055200
     54 H231         9.1690     4.1760    16.4910 h1         1 GSK       0.066950
     55 H232         7.4650     3.6810    16.4980 h1         1 GSK       0.066950
@<TRIPOS>BOND
     1     1     2 1   
     2     2     3 ar  
     3     2     8 ar  
     4     3     4 ar  
     5     3    32 1   
     6     4     5 ar  
     7     4    33 1   
     8     5     6 ar  
     9     5     7 ar  
    10     6    11 ar  
    11     6    34 1   
    12     7     8 ar  
    13     7     9 ar  
    14     8    35 1   
    15     9    10 ar  
    16     9    36 1   
    17    10    11 ar  
    18    10    37 1   
    19    11    12 1   
    20    12    13 2   
    21    12    14 2   
    22    12    15 1   
    23    15    16 1   
    24    15    38 1   
    25    16    17 1   
    26    16    19 1   
    27    16    39 1   
    28    17    18 1   
    29    17    40 1   
    30    17    41 1   
    31    18    21 1   
    32    18    42 1   
    33    18    43 1   
    34    19    20 2   
    35    19    21 1   
    36    21    22 1   
    37    22    23 1   
    38    22    24 1   
    39    22    44 1   
    40    23    45 1   
    41    23    46 1   
    42    23    47 1   
    43    24    25 2   
    44    24    26 1   
    45    26    27 1   
    46    26    31 1   
    47    27    28 1   
    48    27    48 1   
    49    27    49 1   
    50    28    29 1   
    51    28    50 1   
    52    28    51 1   
    53    29    30 1   
    54    30    31 1   
    55    30    52 1   
    56    30    53 1   
    57    31    54 1   
    58    31    55 1   
@<TRIPOS>SUBSTRUCTURE
     1 GSK         1 TEMP              0 ****  ****    0 ROOT
