@<TRIPOS>MOLECULE
GSK
   55    58     1     0     0
SMALL
No Charge or Current Charge


@<TRIPOS>ATOM
      1 Cl1         12.4320     6.8650    28.3350 cl         1 GSK      -0.205000
      2 C1          11.1020     7.3360    27.2840 ca         1 GSK       0.141000
      3 C2           9.8430     7.6240    27.8360 ca         1 GSK      -0.110000
      4 C3           8.7780     8.0010    26.9990 ca         1 GSK      -0.075000
      5 C4           8.9730     8.0890    25.6070 ca         1 GSK      -0.065000
      6 C5           7.9090     8.4640    24.7640 ca         1 GSK       0.022000
      7 C9          10.2400     7.7990    25.0540 ca         1 GSK       0.014000
      8 C10         11.3030     7.4220    25.8970 ca         1 GSK      -0.102000
      9 C8          10.4350     7.8860    23.6640 ca         1 GSK      -0.102000
     10 C7           9.3740     8.2590    22.8220 ca         1 GSK      -0.021000
     11 C6           8.1060     8.5440    23.3700 ca         1 GSK      -0.300500
     12 S1           6.7270     9.0030    22.3080 sy         1 GSK       1.192600
     13 O2           7.1990     9.2320    20.9420 o          1 GSK      -0.542000
     14 O1           5.8710     9.9560    23.0180 o          1 GSK      -0.542000
     15 N1           5.8440     7.5860    22.2480 n7         1 GSK      -0.873300
     16 C12          6.4730     6.2360    22.4590 c5         1 GSK       0.146500
     17 C13          5.3100     5.2110    22.5070 c5         1 GSK      -0.090400
     18 C14          6.0400     3.8660    22.2190 c5         1 GSK       0.104000
     19 C15          7.3830     5.6680    21.3250 c          1 GSK       0.531000
     20 O3           8.1540     6.2440    20.5670 o          1 GSK      -0.554000
     21 N2           7.1270     4.2930    21.3100 n          1 GSK      -0.397800
     22 C16          7.7780     3.4280    20.2800 c3         1 GSK       0.049700
     23 C17          7.6780     1.9180    20.6200 c3         1 GSK      -0.101100
     24 C18          7.2640     3.6990    18.8270 c          1 GSK       0.592100
     25 O4           6.2030     4.2850    18.6300 o          1 GSK      -0.604100
     26 N3           7.9870     3.1640    17.7300 n          1 GSK      -0.413800
     27 C19          9.4800     3.0050    17.7970 c6         1 GSK       0.063000
     28 C20         10.0990     2.2040    16.6210 c6         1 GSK       0.134100
     29 O5           9.5890     2.6760    15.3610 os         1 GSK      -0.450000
     30 C22          8.1650     2.5050    15.2530 c6         1 GSK       0.134100
     31 C23          7.4370     3.3300    16.3440 c6         1 GSK       0.063000
     32 H2           9.6940     7.5550    28.9100 ha         1 GSK       0.132000
     33 H3           7.8050     8.2220    27.4340 ha         1 GSK       0.121000
     34 H5           6.9320     8.6810    25.1910 ha         1 GSK       0.132000
     35 H10         12.2810     7.1970    25.4820 ha         1 GSK       0.134000
     36 H8          11.4080     7.6650    23.2320 ha         1 GSK       0.121000
     37 H7           9.5420     8.3200    21.7480 ha         1 GSK       0.134000
     38 H1           5.4540     7.6610    21.3090 hn         1 GSK       0.500000
     39 H12          7.0450     6.1820    23.3960 h1         1 GSK       0.085700
     40 H131         4.5680     5.4090    21.7250 hc         1 GSK       0.076700
     41 H132         4.7820     5.2090    23.4670 hc         1 GSK       0.076700
     42 H141         5.3660     3.1320    21.7590 h1         1 GSK       0.059200
     43 H142         6.4570     3.4290    23.1370 h1         1 GSK       0.059200
     44 H16          8.8420     3.6920    20.2860 h1         1 GSK       0.087700
     45 H171         8.2600     1.3110    19.9170 hc         1 GSK       0.050700
     46 H172         6.6380     1.5720    20.5720 hc         1 GSK       0.050700
     47 H173         8.0630     1.7240    21.6280 hc         1 GSK       0.050700
     48 H191         9.7750     2.5030    18.7270 h1         1 GSK       0.066950
     49 H192         9.9360     4.0050    17.8140 h1         1 GSK       0.066950
     50 H201         9.8590     1.1350    16.7300 h1         1 GSK       0.055200
     51 H202        11.1930     2.3080    16.6320 h1         1 GSK       0.055200
     52 H221         7.8350     2.8300    14.2560 h1         1 GSK       0.055200
     53 H222         7.9180     1.4390    15.3620 h1         1 GSK       0.055200
     54 H231         7.4910     4.3940    16.0720 h1         1 GSK       0.066950
     55 H232         6.3740     3.0510    16.3370 h1         1 GSK       0.066950
@<TRIPOS>BOND
     1     1     2 1   
     2     2     3 ar  
     3     2     8 ar  
     4     3     4 ar  
     5     3    32 1   
     6     4     5 ar  
     7     4    33 1   
     8     5     6 ar  
     9     5     7 ar  
    10     6    11 ar  
    11     6    34 1   
    12     7     8 ar  
    13     7     9 ar  
    14     8    35 1   
    15     9    10 ar  
    16     9    36 1   
    17    10    11 ar  
    18    10    37 1   
    19    11    12 1   
    20    12    13 2   
    21    12    14 2   
    22    12    15 1   
    23    15    16 1   
    24    15    38 1   
    25    16    17 1   
    26    16    19 1   
    27    16    39 1   
    28    17    18 1   
    29    17    40 1   
    30    17    41 1   
    31    18    21 1   
    32    18    42 1   
    33    18    43 1   
    34    19    20 2   
    35    19    21 1   
    36    21    22 1   
    37    22    23 1   
    38    22    24 1   
    39    22    44 1   
    40    23    45 1   
    41    23    46 1   
    42    23    47 1   
    43    24    25 2   
    44    24    26 1   
    45    26    27 1   
    46    26    31 1   
    47    27    28 1   
    48    27    48 1   
    49    27    49 1   
    50    28    29 1   
    51    28    50 1   
    52    28    51 1   
    53    29    30 1   
    54    30    31 1   
    55    30    52 1   
    56    30    53 1   
    57    31    54 1   
    58    31    55 1   
@<TRIPOS>SUBSTRUCTURE
     1 GSK         1 TEMP              0 ****  ****    0 ROOT
