@<TRIPOS>MOLECULE
GSL
  120   120     1     0     0
SMALL
abcg2


@<TRIPOS>ATOM
      1 C17        -17.3080    -6.7830    -0.6650 c3         1 GSL      -0.088100
      2 C16        -16.5630    -5.4810    -0.9230 c3         1 GSL      -0.075400
      3 C15        -15.0860    -5.5590    -0.5550 c3         1 GSL      -0.075400
      4 C14        -14.3320    -4.2590    -0.8020 c3         1 GSL      -0.074400
      5 C13        -12.8610    -4.3330    -0.4110 c3         1 GSL      -0.074400
      6 C12        -12.1080    -3.0290    -0.6390 c3         1 GSL      -0.074400
      7 C11        -10.6500    -3.0940    -0.2040 c3         1 GSL      -0.074400
      8 C10         -9.8980    -1.7840    -0.4060 c3         1 GSL      -0.074400
      9 C9          -8.4590    -1.8360     0.0930 c3         1 GSL      -0.074400
     10 C8          -7.7110    -0.5210    -0.0810 c3         1 GSL      -0.074400
     11 C7          -6.2960    -0.5550     0.4860 c3         1 GSL      -0.074400
     12 C6          -5.5560     0.7670     0.3370 c3         1 GSL      -0.074400
     13 C5          -4.1630     0.7500     0.9550 c3         1 GSL      -0.076400
     14 C4          -3.4340     2.0820     0.8250 c3         1 GSL      -0.072400
     15 C3          -2.0580     2.0620     1.4800 c3         1 GSL      -0.111400
     16 C2          -1.2910     3.3720     1.3250 c3         1 GSL       0.159300
     17 O           -2.0030     4.4650     1.8600 oh         1 GSL      -0.646000
     18 C1           0.1130     3.2900     1.9510 c3         1 GSL       0.086700
     19 C            0.8600     4.6180     1.9290 c3         1 GSL       0.147600
     20 O1           0.9910     5.0380     0.5880 os         1 GSL      -0.488000
     21 C29          2.0340     5.9270     0.3390 c6         1 GSL       0.340300
     22 O3           3.2890     5.3370     0.4890 os         1 GSL      -0.418000
     23 C28          3.5310     4.2510    -0.3850 c6         1 GSL      -0.007700
     24 C34          4.9090     3.6300    -0.0790 c          1 GSL       0.723000
     25 O7           5.2160     2.6800    -0.8320 o          1 GSL      -0.711500
     26 O6           5.5750     4.0990     0.8530 o          1 GSL      -0.711500
     27 C33          3.4260     4.6850    -1.8450 c6         1 GSL       0.127300
     28 O5           4.4520     5.5820    -2.2070 oh         1 GSL      -0.722000
     29 C32          2.0760     5.3650    -2.0880 c6         1 GSL       0.177300
     30 O4           1.9690     5.9070    -3.3810 oh         1 GSL      -0.647000
     31 C30          1.8630     6.4830    -1.0810 c6         1 GSL       0.159300
     32 O31          0.5910     7.0410    -1.2820 oh         1 GSL      -0.704000
     33 N            0.8780     2.2580     1.2830 ns         1 GSL      -0.509900
     34 C18          1.8420     1.5240     1.8770 c          1 GSL       0.611100
     35 O2           2.0650     1.5740     3.0770 o          1 GSL      -0.615100
     36 C19          2.6310     0.6480     0.9250 c3         1 GSL      -0.166400
     37 C20          3.5730    -0.3320     1.6030 c3         1 GSL      -0.052400
     38 C21          4.4060    -1.0910     0.5770 c3         1 GSL      -0.083400
     39 C22          5.3810    -2.0810     1.2000 c3         1 GSL      -0.069400
     40 C23          6.1920    -2.8470     0.1630 c3         1 GSL      -0.075400
     41 C24          7.1830    -3.8320     0.7690 c3         1 GSL      -0.073400
     42 C25          7.9780    -4.6020    -0.2780 c3         1 GSL      -0.075400
     43 C26          8.9740    -5.5870     0.3200 c3         1 GSL      -0.074400
     44 C27          9.7610    -6.3580    -0.7330 c3         1 GSL      -0.074400
     45 C38         10.7580    -7.3450    -0.1390 c3         1 GSL      -0.074400
     46 C37         11.5410    -8.1180    -1.1930 c3         1 GSL      -0.075400
     47 C36         12.5380    -9.1060    -0.5990 c3         1 GSL      -0.075400
     48 C35         13.3150    -9.8750    -1.6590 c3         1 GSL      -0.088100
     49 H171       -17.2640    -7.0600     0.3900 hc         1 GSL       0.030700
     50 H172       -18.3600    -6.7060    -0.9430 hc         1 GSL       0.030700
     51 H173       -16.8740    -7.6050    -1.2380 hc         1 GSL       0.030700
     52 H161       -16.6590    -5.2060    -1.9780 hc         1 GSL       0.036200
     53 H162       -17.0320    -4.6700    -0.3560 hc         1 GSL       0.036200
     54 H151       -14.9920    -5.8380     0.5000 hc         1 GSL       0.036700
     55 H152       -14.6140    -6.3690    -1.1230 hc         1 GSL       0.036700
     56 H141       -14.4140    -3.9860    -1.8600 hc         1 GSL       0.036700
     57 H142       -14.8140    -3.4490    -0.2440 hc         1 GSL       0.036700
     58 H131       -12.7840    -4.6140     0.6460 hc         1 GSL       0.036700
     59 H132       -12.3750    -5.1390    -0.9720 hc         1 GSL       0.036700
     60 H121       -12.1620    -2.7580    -1.7000 hc         1 GSL       0.036700
     61 H122       -12.6110    -2.2210    -0.0960 hc         1 GSL       0.036700
     62 H111       -10.6030    -3.3750     0.8550 hc         1 GSL       0.037200
     63 H112       -10.1410    -3.8960    -0.7500 hc         1 GSL       0.037200
     64 H101        -9.9080    -1.5170    -1.4680 hc         1 GSL       0.037200
     65 H102       -10.4290    -0.9790     0.1130 hc         1 GSL       0.037200
     66 H91         -8.4570    -2.1140     1.1530 hc         1 GSL       0.036700
     67 H92         -7.9200    -2.6350    -0.4280 hc         1 GSL       0.036700
     68 H81         -7.6730    -0.2580    -1.1440 hc         1 GSL       0.036700
     69 H82         -8.2730     0.2820     0.4090 hc         1 GSL       0.036700
     70 H71         -6.3410    -0.8260     1.5460 hc         1 GSL       0.036700
     71 H72         -5.7260    -1.3510    -0.0060 hc         1 GSL       0.036700
     72 H61         -5.4810     1.0270    -0.7250 hc         1 GSL       0.037200
     73 H62         -6.1440     1.5660     0.8020 hc         1 GSL       0.037200
     74 H51         -4.2420     0.4830     2.0150 hc         1 GSL       0.036200
     75 H52         -3.5670    -0.0410     0.4870 hc         1 GSL       0.036200
     76 H41         -3.3280     2.3360    -0.2350 hc         1 GSL       0.043700
     77 H42         -4.0470     2.8710     1.2690 hc         1 GSL       0.043700
     78 H31A        -2.1570     1.8290     2.5480 hc         1 GSL       0.045700
     79 H32A        -1.4690     1.2500     1.0480 hc         1 GSL       0.045700
     80 H2          -1.1830     3.5910     0.2560 h1         1 GSL       0.089700
     81 HO          -2.2360     4.2570     2.7720 ho         1 GSL       0.428000
     82 H1           0.0030     2.9980     3.0000 h1         1 GSL       0.067700
     83 H1A          0.3230     5.3690     2.5190 h1         1 GSL       0.047700
     84 H2A          1.8380     4.4700     2.4000 h1         1 GSL       0.047700
     85 H29          2.0160     6.7540     1.0650 h2         1 GSL       0.046700
     86 H28          2.7780     3.4670    -0.2280 h1         1 GSL       0.019700
     87 H33          3.4650     3.7780    -2.4630 h1         1 GSL       0.039700
     88 HO5          5.2700     5.0800    -2.2800 ho         1 GSL       0.520000
     89 H32          1.3030     4.6010    -1.9220 h1         1 GSL       0.038700
     90 HO4          2.0920     5.1950    -4.0170 ho         1 GSL       0.431000
     91 H30          2.6500     7.2380    -1.2190 h1         1 GSL       0.069700
     92 H31          0.4980     7.8020    -0.7000 ho         1 GSL       0.490000
     93 HN           0.8080     2.2100     0.2780 hn         1 GSL       0.314500
     94 H191         1.9360     0.1160     0.2690 hc         1 GSL       0.073200
     95 H192         3.2150     1.3030     0.2680 hc         1 GSL       0.073200
     96 H201         4.2400     0.2030     2.2830 hc         1 GSL       0.047700
     97 H202         3.0070    -1.0390     2.2150 hc         1 GSL       0.047700
     98 H211         3.7390    -1.6230    -0.1110 hc         1 GSL       0.048200
     99 H212         4.9600    -0.3690    -0.0340 hc         1 GSL       0.048200
    100 H221         6.0620    -1.5480     1.8730 hc         1 GSL       0.033700
    101 H222         4.8310    -2.7910     1.8270 hc         1 GSL       0.033700
    102 H231         5.5070    -3.3850    -0.5030 hc         1 GSL       0.038700
    103 H232         6.7320    -2.1350    -0.4710 hc         1 GSL       0.038700
    104 H241         7.8750    -3.2940     1.4270 hc         1 GSL       0.034700
    105 H242         6.6460    -4.5410     1.4100 hc         1 GSL       0.034700
    106 H251         7.2840    -5.1400    -0.9330 hc         1 GSL       0.036700
    107 H252         8.5110    -3.8920    -0.9210 hc         1 GSL       0.036700
    108 H261         9.6710    -5.0490     0.9720 hc         1 GSL       0.035200
    109 H262         8.4420    -6.2950     0.9650 hc         1 GSL       0.035200
    110 H271         9.0620    -6.8950    -1.3840 hc         1 GSL       0.036700
    111 H272        10.2920    -5.6500    -1.3790 hc         1 GSL       0.036700
    112 H381        11.4580    -6.8080     0.5100 hc         1 GSL       0.035700
    113 H382        10.2270    -8.0520     0.5080 hc         1 GSL       0.035700
    114 H371        10.8420    -8.6550    -1.8430 hc         1 GSL       0.036700
    115 H372        12.0730    -7.4120    -1.8400 hc         1 GSL       0.036700
    116 H361        13.2370    -8.5690     0.0500 hc         1 GSL       0.035700
    117 H362        12.0050    -9.8100     0.0480 hc         1 GSL       0.035700
    118 H351        14.0200   -10.5760    -1.2100 hc         1 GSL       0.029367
    119 H352        12.6430   -10.4460    -2.3020 hc         1 GSL       0.029367
    120 H353        13.8830    -9.1980    -2.2990 hc         1 GSL       0.029367
@<TRIPOS>BOND
     1     1     2 1   
     2     1    49 1   
     3     1    50 1   
     4     1    51 1   
     5     2     3 1   
     6     2    52 1   
     7     2    53 1   
     8     3     4 1   
     9     3    54 1   
    10     3    55 1   
    11     4     5 1   
    12     4    56 1   
    13     4    57 1   
    14     5     6 1   
    15     5    58 1   
    16     5    59 1   
    17     6     7 1   
    18     6    60 1   
    19     6    61 1   
    20     7     8 1   
    21     7    62 1   
    22     7    63 1   
    23     8     9 1   
    24     8    64 1   
    25     8    65 1   
    26     9    10 1   
    27     9    66 1   
    28     9    67 1   
    29    10    11 1   
    30    10    68 1   
    31    10    69 1   
    32    11    12 1   
    33    11    70 1   
    34    11    71 1   
    35    12    13 1   
    36    12    72 1   
    37    12    73 1   
    38    13    14 1   
    39    13    74 1   
    40    13    75 1   
    41    14    15 1   
    42    14    76 1   
    43    14    77 1   
    44    15    16 1   
    45    15    78 1   
    46    15    79 1   
    47    16    17 1   
    48    16    18 1   
    49    16    80 1   
    50    17    81 1   
    51    18    19 1   
    52    18    33 1   
    53    18    82 1   
    54    19    20 1   
    55    19    83 1   
    56    19    84 1   
    57    20    21 1   
    58    21    22 1   
    59    21    31 1   
    60    21    85 1   
    61    22    23 1   
    62    23    24 1   
    63    23    27 1   
    64    23    86 1   
    65    24    25 1   
    66    24    26 1   
    67    27    28 1   
    68    27    29 1   
    69    27    87 1   
    70    28    88 1   
    71    29    30 1   
    72    29    31 1   
    73    29    89 1   
    74    30    90 1   
    75    31    32 1   
    76    31    91 1   
    77    32    92 1   
    78    33    34 1   
    79    33    93 1   
    80    34    35 2   
    81    34    36 1   
    82    36    37 1   
    83    36    94 1   
    84    36    95 1   
    85    37    38 1   
    86    37    96 1   
    87    37    97 1   
    88    38    39 1   
    89    38    98 1   
    90    38    99 1   
    91    39    40 1   
    92    39   100 1   
    93    39   101 1   
    94    40    41 1   
    95    40   102 1   
    96    40   103 1   
    97    41    42 1   
    98    41   104 1   
    99    41   105 1   
   100    42    43 1   
   101    42   106 1   
   102    42   107 1   
   103    43    44 1   
   104    43   108 1   
   105    43   109 1   
   106    44    45 1   
   107    44   110 1   
   108    44   111 1   
   109    45    46 1   
   110    45   112 1   
   111    45   113 1   
   112    46    47 1   
   113    46   114 1   
   114    46   115 1   
   115    47    48 1   
   116    47   116 1   
   117    47   117 1   
   118    48   118 1   
   119    48   119 1   
   120    48   120 1   
@<TRIPOS>SUBSTRUCTURE
     1 GSL         1 TEMP              0 ****  ****    0 ROOT
