@<TRIPOS>MOLECULE
GSL
  120   120     1     0     0
SMALL
No Charge or Current Charge


@<TRIPOS>ATOM
      1 C17        -18.2920    -5.9890    -1.0510 c3         1 GSL      -0.088100
      2 C16        -17.4360    -4.7170    -1.2040 c3         1 GSL      -0.075400
      3 C15        -15.9950    -4.8890    -0.6760 c3         1 GSL      -0.075400
      4 C14        -15.1380    -3.6130    -0.8290 c3         1 GSL      -0.074400
      5 C13        -13.6970    -3.7860    -0.3010 c3         1 GSL      -0.074400
      6 C12        -12.8400    -2.5110    -0.4540 c3         1 GSL      -0.074400
      7 C11        -11.3990    -2.6840     0.0740 c3         1 GSL      -0.074400
      8 C10        -10.5420    -1.4080    -0.0790 c3         1 GSL      -0.074400
      9 C9          -9.1010    -1.5810     0.4490 c3         1 GSL      -0.074400
     10 C8          -8.2450    -0.3050     0.2960 c3         1 GSL      -0.074400
     11 C7          -6.8030    -0.4780     0.8230 c3         1 GSL      -0.074400
     12 C6          -5.9460     0.7970     0.6700 c3         1 GSL      -0.074400
     13 C5          -4.5050     0.6240     1.1970 c3         1 GSL      -0.076400
     14 C4          -3.6470     1.8990     1.0430 c3         1 GSL      -0.072400
     15 C3          -2.2020     1.7200     1.5710 c3         1 GSL      -0.111400
     16 C2          -1.2890     2.9620     1.3720 c3         1 GSL       0.159300
     17 O           -1.8680     4.0750     2.0740 oh         1 GSL      -0.646000
     18 C1           0.1830     2.7450     1.8530 c3         1 GSL       0.086700
     19 C            1.0940     3.9690     1.5780 c3         1 GSL       0.147600
     20 O1           1.3250     4.0610     0.1560 os         1 GSL      -0.488000
     21 C29          2.1930     5.1280    -0.2810 c6         1 GSL       0.340300
     22 O3           3.5200     4.9480     0.2680 os         1 GSL      -0.418000
     23 C28          4.2180     3.7510    -0.1950 c6         1 GSL      -0.007700
     24 C34          5.5750     3.4760     0.5390 c          1 GSL       0.723000
     25 O7           5.7050     2.3480     0.9950 o          1 GSL      -0.711500
     26 O6           6.0920     4.4260     1.1160 o          1 GSL      -0.711500
     27 C33          4.4360     3.8570    -1.7240 c6         1 GSL       0.127300
     28 O5           5.2590     4.9990    -2.0390 oh         1 GSL      -0.722000
     29 C32          3.0500     3.9860    -2.4290 c6         1 GSL       0.177300
     30 O4           3.2640     4.1290    -3.8460 oh         1 GSL      -0.647000
     31 C30          2.2330     5.1970    -1.8460 c6         1 GSL       0.159300
     32 O31          0.8880     5.2360    -2.3880 oh         1 GSL      -0.704000
     33 N            0.7940     1.5390     1.2650 ns         1 GSL      -0.509900
     34 C18          1.0040     0.3480     1.9180 c          1 GSL       0.611100
     35 O2           0.6580     0.1610     3.0760 o          1 GSL      -0.615100
     36 C19          1.6690    -0.7390     1.0720 c3         1 GSL      -0.166400
     37 C20          3.1520    -0.9350     1.4640 c3         1 GSL      -0.052400
     38 C21          3.8600    -2.0180     0.6210 c3         1 GSL      -0.083400
     39 C22          5.3410    -2.2150     1.0110 c3         1 GSL      -0.069400
     40 C23          6.0480    -3.2980     0.1670 c3         1 GSL      -0.075400
     41 C24          7.5290    -3.4970     0.5570 c3         1 GSL      -0.073400
     42 C25          8.2360    -4.5810    -0.2850 c3         1 GSL      -0.075400
     43 C26          9.7170    -4.7810     0.1050 c3         1 GSL      -0.074400
     44 C27         10.4230    -5.8660    -0.7370 c3         1 GSL      -0.074400
     45 C38         11.9040    -6.0650    -0.3460 c3         1 GSL      -0.074400
     46 C37         12.6100    -7.1500    -1.1880 c3         1 GSL      -0.075400
     47 C36         14.0910    -7.3500    -0.7980 c3         1 GSL      -0.075400
     48 C35         14.7960    -8.4330    -1.6380 c3         1 GSL      -0.088100
     49 H171       -18.3730    -6.2780     0.0040 hc         1 GSL       0.030700
     50 H172       -19.3030    -5.8180    -1.4390 hc         1 GSL       0.030700
     51 H173       -17.8480    -6.8240    -1.6060 hc         1 GSL       0.030700
     52 H161       -17.4040    -4.4340    -2.2630 hc         1 GSL       0.036200
     53 H162       -17.9240    -3.8930    -0.6680 hc         1 GSL       0.036200
     54 H151       -16.0320    -5.1730     0.3840 hc         1 GSL       0.036700
     55 H152       -15.5120    -5.7150    -1.2130 hc         1 GSL       0.036700
     56 H141       -15.1020    -3.3290    -1.8880 hc         1 GSL       0.036700
     57 H142       -15.6220    -2.7880    -0.2920 hc         1 GSL       0.036700
     58 H131       -13.7340    -4.0710     0.7580 hc         1 GSL       0.036700
     59 H132       -13.2140    -4.6120    -0.8380 hc         1 GSL       0.036700
     60 H121       -12.8040    -2.2260    -1.5130 hc         1 GSL       0.036700
     61 H122       -13.3240    -1.6850     0.0830 hc         1 GSL       0.036700
     62 H111       -11.4360    -2.9680     1.1330 hc         1 GSL       0.037200
     63 H112       -10.9160    -3.5090    -0.4630 hc         1 GSL       0.037200
     64 H101       -10.5060    -1.1240    -1.1380 hc         1 GSL       0.037200
     65 H102       -11.0260    -0.5820     0.4580 hc         1 GSL       0.037200
     66 H91         -9.1380    -1.8650     1.5080 hc         1 GSL       0.036700
     67 H92         -8.6180    -2.4060    -0.0880 hc         1 GSL       0.036700
     68 H81         -8.2080    -0.0210    -0.7640 hc         1 GSL       0.036700
     69 H82         -8.7280     0.5200     0.8330 hc         1 GSL       0.036700
     70 H71         -6.8390    -0.7630     1.8820 hc         1 GSL       0.036700
     71 H72         -6.3200    -1.3040     0.2860 hc         1 GSL       0.036700
     72 H61         -5.9110     1.0820    -0.3890 hc         1 GSL       0.037200
     73 H62         -6.4300     1.6230     1.2070 hc         1 GSL       0.037200
     74 H51         -4.5410     0.3400     2.2560 hc         1 GSL       0.036200
     75 H52         -4.0230    -0.2020     0.6600 hc         1 GSL       0.036200
     76 H41         -3.6100     2.1820    -0.0170 hc         1 GSL       0.043700
     77 H42         -4.1370     2.7230     1.5770 hc         1 GSL       0.043700
     78 H31A        -2.2320     1.4550     2.6350 hc         1 GSL       0.045700
     79 H32A        -1.7600     0.8640     1.0480 hc         1 GSL       0.045700
     80 H2          -1.2530     3.1800     0.2950 h1         1 GSL       0.089700
     81 HO          -2.1740     3.7400     2.9430 ho         1 GSL       0.428000
     82 H1           0.1520     2.6140     2.9420 h1         1 GSL       0.067700
     83 H1A          0.6280     4.8860     1.9620 h1         1 GSL       0.047700
     84 H2A          2.0420     3.8250     2.1120 h1         1 GSL       0.047700
     85 H29          1.7860     6.0800     0.0920 h2         1 GSL       0.046700
     86 H28          3.5770     2.8790     0.0050 h1         1 GSL       0.019700
     87 H33          4.9220     2.9340    -2.0730 h1         1 GSL       0.039700
     88 HO5          5.3030     5.5360    -1.2110 ho         1 GSL       0.520000
     89 H32          2.4830     3.0640    -2.2330 h1         1 GSL       0.038700
     90 HO4          4.1010     4.6430    -3.9100 ho         1 GSL       0.431000
     91 H30          2.7620     6.1230    -2.1150 h1         1 GSL       0.069700
     92 H31          0.3690     4.6110    -1.8300 ho         1 GSL       0.490000
     93 HN           1.1370     1.6070     0.3140 hn         1 GSL       0.314500
     94 H191         1.1360    -1.6830     1.2350 hc         1 GSL       0.073200
     95 H192         1.6260    -0.4640     0.0110 hc         1 GSL       0.073200
     96 H201         3.6830     0.0180     1.3490 hc         1 GSL       0.047700
     97 H202         3.2120    -1.2070     2.5260 hc         1 GSL       0.047700
     98 H211         3.3270    -2.9700     0.7360 hc         1 GSL       0.048200
     99 H212         3.8010    -1.7440    -0.4400 hc         1 GSL       0.048200
    100 H221         5.8740    -1.2630     0.8940 hc         1 GSL       0.033700
    101 H222         5.4010    -2.4880     2.0720 hc         1 GSL       0.033700
    102 H231         5.5150    -4.2500     0.2830 hc         1 GSL       0.038700
    103 H232         5.9890    -3.0240    -0.8940 hc         1 GSL       0.038700
    104 H241         8.0630    -2.5460     0.4410 hc         1 GSL       0.034700
    105 H242         7.5890    -3.7700     1.6180 hc         1 GSL       0.034700
    106 H251         7.7020    -5.5330    -0.1690 hc         1 GSL       0.036700
    107 H252         8.1770    -4.3080    -1.3460 hc         1 GSL       0.036700
    108 H261        10.2510    -3.8300    -0.0110 hc         1 GSL       0.035200
    109 H262         9.7760    -5.0540     1.1660 hc         1 GSL       0.035200
    110 H271         9.8890    -6.8170    -0.6210 hc         1 GSL       0.036700
    111 H272        10.3650    -5.5920    -1.7980 hc         1 GSL       0.036700
    112 H381        12.4390    -5.1140    -0.4630 hc         1 GSL       0.035700
    113 H382        11.9630    -6.3380     0.7150 hc         1 GSL       0.035700
    114 H371        12.0760    -8.1020    -1.0720 hc         1 GSL       0.036700
    115 H372        12.5520    -6.8780    -2.2500 hc         1 GSL       0.036700
    116 H361        14.6300    -6.4020    -0.9150 hc         1 GSL       0.035700
    117 H362        14.1530    -7.6260     0.2620 hc         1 GSL       0.035700
    118 H351        15.8420    -8.5390    -1.3250 hc         1 GSL       0.029367
    119 H352        14.3010    -9.4040    -1.5140 hc         1 GSL       0.029367
    120 H353        14.7810    -8.1690    -2.7020 hc         1 GSL       0.029367
@<TRIPOS>BOND
     1     1     2 1   
     2     1    49 1   
     3     1    50 1   
     4     1    51 1   
     5     2     3 1   
     6     2    52 1   
     7     2    53 1   
     8     3     4 1   
     9     3    54 1   
    10     3    55 1   
    11     4     5 1   
    12     4    56 1   
    13     4    57 1   
    14     5     6 1   
    15     5    58 1   
    16     5    59 1   
    17     6     7 1   
    18     6    60 1   
    19     6    61 1   
    20     7     8 1   
    21     7    62 1   
    22     7    63 1   
    23     8     9 1   
    24     8    64 1   
    25     8    65 1   
    26     9    10 1   
    27     9    66 1   
    28     9    67 1   
    29    10    11 1   
    30    10    68 1   
    31    10    69 1   
    32    11    12 1   
    33    11    70 1   
    34    11    71 1   
    35    12    13 1   
    36    12    72 1   
    37    12    73 1   
    38    13    14 1   
    39    13    74 1   
    40    13    75 1   
    41    14    15 1   
    42    14    76 1   
    43    14    77 1   
    44    15    16 1   
    45    15    78 1   
    46    15    79 1   
    47    16    17 1   
    48    16    18 1   
    49    16    80 1   
    50    17    81 1   
    51    18    19 1   
    52    18    33 1   
    53    18    82 1   
    54    19    20 1   
    55    19    83 1   
    56    19    84 1   
    57    20    21 1   
    58    21    22 1   
    59    21    31 1   
    60    21    85 1   
    61    22    23 1   
    62    23    24 1   
    63    23    27 1   
    64    23    86 1   
    65    24    25 1   
    66    24    26 1   
    67    27    28 1   
    68    27    29 1   
    69    27    87 1   
    70    28    88 1   
    71    29    30 1   
    72    29    31 1   
    73    29    89 1   
    74    30    90 1   
    75    31    32 1   
    76    31    91 1   
    77    32    92 1   
    78    33    34 1   
    79    33    93 1   
    80    34    35 2   
    81    34    36 1   
    82    36    37 1   
    83    36    94 1   
    84    36    95 1   
    85    37    38 1   
    86    37    96 1   
    87    37    97 1   
    88    38    39 1   
    89    38    98 1   
    90    38    99 1   
    91    39    40 1   
    92    39   100 1   
    93    39   101 1   
    94    40    41 1   
    95    40   102 1   
    96    40   103 1   
    97    41    42 1   
    98    41   104 1   
    99    41   105 1   
   100    42    43 1   
   101    42   106 1   
   102    42   107 1   
   103    43    44 1   
   104    43   108 1   
   105    43   109 1   
   106    44    45 1   
   107    44   110 1   
   108    44   111 1   
   109    45    46 1   
   110    45   112 1   
   111    45   113 1   
   112    46    47 1   
   113    46   114 1   
   114    46   115 1   
   115    47    48 1   
   116    47   116 1   
   117    47   117 1   
   118    48   118 1   
   119    48   119 1   
   120    48   120 1   
@<TRIPOS>SUBSTRUCTURE
     1 GSL         1 TEMP              0 ****  ****    0 ROOT
