@<TRIPOS>MOLECULE
GSM
   38    37     1     0     0
SMALL
abcg2


@<TRIPOS>ATOM
      1 O32         33.4670     9.9580    22.9900 o          1 GSM      -0.730500
      2 C3          33.6870    11.0940    23.4680 c          1 GSM       0.702000
      3 O31         32.8430    11.9110    23.9130 o          1 GSM      -0.730500
      4 CA3         35.1520    11.6010    23.5230 c3         1 GSM      -0.047000
      5 N3          36.1580    10.6420    23.1230 ns         1 GSM      -0.442900
      6 C2          36.6490     9.7170    23.9540 c          1 GSM       0.589100
      7 O2          36.3890     9.6630    25.1580 o          1 GSM      -0.654100
      8 CA2         37.6110     8.6830    23.3450 c3         1 GSM       0.023700
      9 CB2         38.9790     8.8050    24.0260 c3         1 GSM       0.057600
     10 SG2         40.1510     7.4820    23.6100 ss         1 GSM      -0.448000
     11 C4          39.3650     6.0670    24.4300 c3         1 GSM       0.044900
     12 N2          37.7410     8.7600    21.9080 ns         1 GSM      -0.507900
     13 CD1         37.1040     7.9180    21.0590 c          1 GSM       0.601100
     14 OE1         36.2650     7.1040    21.4450 o          1 GSM      -0.615100
     15 CG1         37.5140     8.0280    19.6090 c3         1 GSM      -0.148400
     16 CB1         38.3220     6.7970    19.1840 c3         1 GSM      -0.047400
     17 CA1         38.8020     6.8620    17.7320 c3         1 GSM       0.024500
     18 N1          39.4170     5.5700    17.3870 n8         1 GSM      -0.976200
     19 C1          39.8130     8.0250    17.5420 c          1 GSM       0.706000
     20 O11         39.3950     9.0310    16.9120 o          1 GSM      -0.731000
     21 O12         40.9530     7.8910    18.0500 o          1 GSM      -0.731000
     22 HA31        35.2310    12.4730    22.8720 h1         1 GSM       0.033700
     23 HA32        35.3610    11.9280    24.5400 h1         1 GSM       0.033700
     24 HN3         36.3560    10.5340    22.1410 hn         1 GSM       0.312500
     25 HA2         37.1680     7.7150    23.5790 h1         1 GSM       0.098700
     26 HB21        39.4640     9.7340    23.7180 h1         1 GSM       0.075200
     27 HB22        38.8400     8.8350    25.1050 h1         1 GSM       0.075200
     28 H41         40.0470     5.2250    24.3180 h1         1 GSM       0.056367
     29 H42         39.2170     6.2750    25.4890 h1         1 GSM       0.056367
     30 H43         38.4140     5.8170    23.9620 h1         1 GSM       0.056367
     31 HN2         38.4670     9.3500    21.5300 hn         1 GSM       0.318500
     32 HG11        36.6050     8.0990    19.0080 hc         1 GSM       0.068700
     33 HG12        38.0940     8.9370    19.4450 hc         1 GSM       0.068700
     34 HB11        39.1950     6.6820    19.8320 hc         1 GSM       0.040700
     35 HB12        37.7030     5.9050    19.3110 hc         1 GSM       0.040700
     36 HA1         37.9380     7.0870    17.0940 h1         1 GSM       0.003700
     37 HN11        39.7770     5.6050    16.4390 hn         1 GSM       0.361000
     38 HN12        38.6960     4.8530    17.3860 hn         1 GSM       0.361000
@<TRIPOS>BOND
     1     1     2 1   
     2     2     3 1   
     3     2     4 1   
     4     4     5 1   
     5     4    22 1   
     6     4    23 1   
     7     5     6 1   
     8     5    24 1   
     9     6     7 2   
    10     6     8 1   
    11     8     9 1   
    12     8    12 1   
    13     8    25 1   
    14     9    10 1   
    15     9    26 1   
    16     9    27 1   
    17    10    11 1   
    18    11    28 1   
    19    11    29 1   
    20    11    30 1   
    21    12    13 1   
    22    12    31 1   
    23    13    14 2   
    24    13    15 1   
    25    15    16 1   
    26    15    32 1   
    27    15    33 1   
    28    16    17 1   
    29    16    34 1   
    30    16    35 1   
    31    17    18 1   
    32    17    19 1   
    33    17    36 1   
    34    18    37 1   
    35    18    38 1   
    36    19    20 1   
    37    19    21 1   
@<TRIPOS>SUBSTRUCTURE
     1 GSM         1 TEMP              0 ****  ****    0 ROOT
