@<TRIPOS>MOLECULE
GSM
   38    37     1     0     0
SMALL
No Charge or Current Charge


@<TRIPOS>ATOM
      1 O32         34.6830    12.0080    21.3660 o          1 GSM      -0.730500
      2 C3          34.1230    11.9170    22.4500 c          1 GSM       0.702000
      3 O31         32.9280    12.1220    22.6070 o          1 GSM      -0.730500
      4 CA3         34.9560    11.4590    23.6790 c3         1 GSM      -0.047000
      5 N3          35.9340    10.4050    23.3270 ns         1 GSM      -0.442900
      6 C2          36.6680     9.6660    24.2320 c          1 GSM       0.589100
      7 O2          36.5530     9.8380    25.4400 o          1 GSM      -0.654100
      8 CA2         37.6570     8.6250    23.6300 c3         1 GSM       0.023700
      9 CB2         39.0870     8.8330    24.1860 c3         1 GSM       0.057600
     10 SG2         40.3150     7.6330    23.4690 ss         1 GSM      -0.448000
     11 C4          39.6580     6.0310    24.1260 c3         1 GSM       0.044900
     12 N2          37.6570     8.6290    22.1410 ns         1 GSM      -0.507900
     13 CD1         37.1440     7.6190    21.3570 c          1 GSM       0.601100
     14 OE1         36.5030     6.6900    21.8270 o          1 GSM      -0.615100
     15 CG1         37.3880     7.7740    19.8540 c3         1 GSM      -0.148400
     16 CB1         38.4650     6.7780    19.3540 c3         1 GSM      -0.047400
     17 CA1         38.6910     6.8110    17.8160 c3         1 GSM       0.024500
     18 N1          39.5710     5.6590    17.4060 n8         1 GSM      -0.976200
     19 C1          39.1320     8.2460    17.2900 c          1 GSM       0.706000
     20 O11         38.5750     8.6880    16.2930 o          1 GSM      -0.731000
     21 O12         40.0300     8.8460    17.8690 o          1 GSM      -0.731000
     22 HA31        35.4920    12.3290    24.0790 h1         1 GSM       0.033700
     23 HA32        34.2750    11.0760    24.4490 h1         1 GSM       0.033700
     24 HN3         36.0880    10.2020    22.3450 hn         1 GSM       0.312500
     25 HA2         37.2950     7.6500    23.9800 h1         1 GSM       0.098700
     26 HB21        39.4200     9.8530    23.9530 h1         1 GSM       0.075200
     27 HB22        39.0780     8.7260    25.2790 h1         1 GSM       0.075200
     28 H41         40.3440     5.2170    23.8620 h1         1 GSM       0.056367
     29 H42         39.5680     6.0830    25.2180 h1         1 GSM       0.056367
     30 H43         38.6740     5.8200    23.6900 h1         1 GSM       0.056367
     31 HN2         38.2060     9.3340    21.6610 hn         1 GSM       0.318500
     32 HG11        36.4500     7.5660    19.3260 hc         1 GSM       0.068700
     33 HG12        37.7210     8.7950    19.6350 hc         1 GSM       0.068700
     34 HB11        39.4120     6.9840    19.8690 hc         1 GSM       0.040700
     35 HB12        38.1640     5.7640    19.6470 hc         1 GSM       0.040700
     36 HA1         37.7160     6.6040    17.3550 h1         1 GSM       0.003700
     37 HN11        39.5960     5.6050    16.3810 hn         1 GSM       0.361000
     38 HN12        39.1310     4.7770    17.6920 hn         1 GSM       0.361000
@<TRIPOS>BOND
     1     1     2 1   
     2     2     3 1   
     3     2     4 1   
     4     4     5 1   
     5     4    22 1   
     6     4    23 1   
     7     5     6 1   
     8     5    24 1   
     9     6     7 2   
    10     6     8 1   
    11     8     9 1   
    12     8    12 1   
    13     8    25 1   
    14     9    10 1   
    15     9    26 1   
    16     9    27 1   
    17    10    11 1   
    18    11    28 1   
    19    11    29 1   
    20    11    30 1   
    21    12    13 1   
    22    12    31 1   
    23    13    14 2   
    24    13    15 1   
    25    15    16 1   
    26    15    32 1   
    27    15    33 1   
    28    16    17 1   
    29    16    34 1   
    30    16    35 1   
    31    17    18 1   
    32    17    19 1   
    33    17    36 1   
    34    18    37 1   
    35    18    38 1   
    36    19    20 1   
    37    19    21 1   
@<TRIPOS>SUBSTRUCTURE
     1 GSM         1 TEMP              0 ****  ****    0 ROOT
