@<TRIPOS>MOLECULE
GSN
   36    35     1     0     0
SMALL
No Charge or Current Charge


@<TRIPOS>ATOM
      1 OXT          6.2710    -0.3270    -0.0940 o          1 GSN      -0.737000
      2 C            5.6110     0.0590     0.8620 c          1 GSN       0.693000
      3 O            5.8240    -0.3080     2.0100 o          1 GSN      -0.737000
      4 CA           4.5310     1.1950     0.6240 c3         1 GSN       0.011500
      5 N            5.0070     2.4150    -0.1260 n8         1 GSN      -1.000200
      6 CB           3.2600     0.5960    -0.0390 c3         1 GSN      -0.045400
      7 CAG          2.0280     1.5380    -0.0360 c3         1 GSN      -0.154400
      8 CAH          0.8050     0.8690    -0.6700 c          1 GSN       0.602100
      9 OAI          0.6920     0.7150    -1.8770 o          1 GSN      -0.613100
     10 NAJ         -0.1820     0.5000     0.2170 ns         1 GSN      -0.506900
     11 CAK         -1.4840    -0.1140    -0.1530 c3         1 GSN       0.030700
     12 CAL         -1.5080    -1.6470     0.0970 c3         1 GSN       0.058600
     13 SAM         -0.3590    -2.5890    -1.0160 ss         1 GSN      -0.283500
     14 NAN          1.0220    -2.4080    -0.0760 n2         1 GSN       0.133800
     15 OAV          2.0380    -2.9040    -0.5290 o          1 GSN      -0.116300
     16 CAO         -2.6360     0.5700     0.6350 c          1 GSN       0.575100
     17 OAP         -2.4520     1.2430     1.6440 o          1 GSN      -0.661100
     18 NAQ         -3.9010     0.3730     0.1200 ns         1 GSN      -0.457900
     19 CAR         -5.1510     0.9130     0.7070 c3         1 GSN      -0.058000
     20 CAS         -6.3950     0.6310    -0.1830 c          1 GSN       0.713000
     21 OAU         -7.3670     1.3610    -0.0560 o          1 GSN      -0.730500
     22 OAT         -6.3390    -0.2810    -0.9980 o          1 GSN      -0.730500
     23 HA           4.2340     1.5440     1.6230 h1         1 GSN       0.032700
     24 HN1          5.8090     2.8210     0.3720 hn         1 GSN       0.379500
     25 HN2          5.4200     2.1050    -1.0140 hn         1 GSN       0.379500
     26 HB1          3.4920     0.2940    -1.0680 hc         1 GSN       0.052200
     27 HB2          2.9940    -0.3200     0.5010 hc         1 GSN       0.052200
     28 HAG1         1.8090     1.8150     1.0020 hc         1 GSN       0.057200
     29 HAG2         2.2680     2.4370    -0.6160 hc         1 GSN       0.057200
     30 HAJ         -0.0230     0.7260     1.1930 hn         1 GSN       0.325500
     31 HAK         -1.6800     0.0700    -1.2180 h1         1 GSN       0.102700
     32 HAL1        -1.2710    -1.8660     1.1470 h1         1 GSN       0.080200
     33 HAL2        -2.5220    -2.0210    -0.0950 h1         1 GSN       0.080200
     34 HAQ         -3.9820    -0.1890    -0.7220 hn         1 GSN       0.346500
     35 HAR1        -5.3150     0.4520     1.6890 h1         1 GSN       0.034200
     36 HAR2        -5.0470     1.9980     0.8360 h1         1 GSN       0.034200
@<TRIPOS>BOND
     1     1     2 1   
     2     2     3 1   
     3     2     4 1   
     4     4     5 1   
     5     4     6 1   
     6     4    23 1   
     7     5    24 1   
     8     5    25 1   
     9     6     7 1   
    10     6    26 1   
    11     6    27 1   
    12     7     8 1   
    13     7    28 1   
    14     7    29 1   
    15     8     9 2   
    16     8    10 1   
    17    10    11 1   
    18    10    30 1   
    19    11    12 1   
    20    11    16 1   
    21    11    31 1   
    22    12    13 1   
    23    12    32 1   
    24    12    33 1   
    25    13    14 1   
    26    14    15 2   
    27    16    17 2   
    28    16    18 1   
    29    18    19 1   
    30    18    34 1   
    31    19    20 1   
    32    19    35 1   
    33    19    36 1   
    34    20    21 1   
    35    20    22 1   
@<TRIPOS>SUBSTRUCTURE
     1 GSN         1 TEMP              0 ****  ****    0 ROOT
