@<TRIPOS>MOLECULE
GSN
   36    35     1     0     0
SMALL
bcc


@<TRIPOS>ATOM
      1 OXT          6.5080     0.7070    -0.8560 o          1 GSN      -0.842300
      2 C            5.7050     0.2770    -0.0040 c          1 GSN       0.903600
      3 O            5.7530    -0.8300     0.5700 o          1 GSN      -0.842300
      4 CA           4.5020     1.1820     0.3670 c3         1 GSN       0.011500
      5 N            4.6150     2.5720    -0.0450 n8         1 GSN      -0.889800
      6 CB           3.2280     0.5690    -0.2180 c3         1 GSN      -0.045400
      7 CAG          1.9610     1.2800     0.2500 c3         1 GSN      -0.154400
      8 CAH          0.7250     0.7130    -0.4050 c          1 GSN       0.669100
      9 OAI          0.6170     0.6250    -1.6190 o          1 GSN      -0.613100
     10 NAJ         -0.2420     0.3090     0.4470 ns         1 GSN      -0.573900
     11 CAK         -1.4820    -0.2800     0.0320 c3         1 GSN       0.030700
     12 CAL         -1.5500    -1.7660     0.4110 c3         1 GSN       0.010700
     13 SAM         -0.2110    -2.7290    -0.3060 ss         1 GSN      -0.235600
     14 NAN          0.9110    -2.5260     1.0380 n2         1 GSN       0.133800
     15 OAV          1.9760    -3.0130     0.8820 o          1 GSN      -0.116300
     16 CAO         -2.6550     0.4280     0.7120 c          1 GSN       0.642100
     17 OAP         -2.5700     0.8070     1.8740 o          1 GSN      -0.661100
     18 NAQ         -3.7490     0.5330    -0.0350 ns         1 GSN      -0.524900
     19 CAR         -5.0050     1.0660     0.4290 c3         1 GSN      -0.058000
     20 CAS         -6.0720     0.9880    -0.6840 c          1 GSN       0.923600
     21 OAU         -7.1990     1.4030    -0.3680 o          1 GSN      -0.835800
     22 OAT         -5.7090     0.5240    -1.7820 o          1 GSN      -0.835800
     23 HA           4.4040     1.1670     1.4580 h1         1 GSN       0.032700
     24 HN1          5.3700     3.0050     0.4730 hn         1 GSN       0.324300
     25 HN2          4.9340     2.5820    -1.0080 hn         1 GSN       0.324300
     26 HB1          3.2810     0.6010    -1.3110 hc         1 GSN       0.052200
     27 HB2          3.1850    -0.4850     0.0610 hc         1 GSN       0.052200
     28 HAG1         1.8890     1.2260     1.3400 hc         1 GSN       0.057200
     29 HAG2         2.0310     2.3390    -0.0080 hc         1 GSN       0.057200
     30 HAJ         -0.0990     0.4300     1.4380 hn         1 GSN       0.325500
     31 HAK         -1.5570    -0.1830    -1.0510 h1         1 GSN       0.102700
     32 HAL1        -1.5020    -1.8930     1.4950 h1         1 GSN       0.080200
     33 HAL2        -2.4850    -2.2110     0.0680 h1         1 GSN       0.080200
     34 HAQ         -3.7550     0.2260    -0.9980 hn         1 GSN       0.346500
     35 HAR1        -5.3580     0.5140     1.3050 h1         1 GSN       0.034200
     36 HAR2        -4.8940     2.1090     0.7420 h1         1 GSN       0.034200
@<TRIPOS>BOND
     1     1     2 1   
     2     2     3 1   
     3     2     4 1   
     4     4     5 1   
     5     4     6 1   
     6     4    23 1   
     7     5    24 1   
     8     5    25 1   
     9     6     7 1   
    10     6    26 1   
    11     6    27 1   
    12     7     8 1   
    13     7    28 1   
    14     7    29 1   
    15     8     9 2   
    16     8    10 1   
    17    10    11 1   
    18    10    30 1   
    19    11    12 1   
    20    11    16 1   
    21    11    31 1   
    22    12    13 1   
    23    12    32 1   
    24    12    33 1   
    25    13    14 1   
    26    14    15 2   
    27    16    17 2   
    28    16    18 1   
    29    18    19 1   
    30    18    34 1   
    31    19    20 1   
    32    19    35 1   
    33    19    36 1   
    34    20    21 1   
    35    20    22 1   
@<TRIPOS>SUBSTRUCTURE
     1 GSN         1 TEMP              0 ****  ****    0 ROOT
