@<TRIPOS>MOLECULE
GSO
   52    52     1     0     0
SMALL
No Charge or Current Charge


@<TRIPOS>ATOM
      1 C            6.3840    -1.0690    98.9340 c          1 GSO       0.338000
      2 OT1          6.5600     0.1430    98.9160 o          1 GSO      -0.569000
      3 OT2          7.1850    -1.7810    98.3380 o          1 GSO      -0.569000
      4 N            4.2400    -2.3000    98.7300 n8         1 GSO      -0.300000
      5 CA           5.1820    -1.6670    99.6710 c3         1 GSO      -0.122000
      6 CB           5.5700    -2.6720   100.7870 c3         1 GSO      -0.129000
      7 CB2          8.8290    -6.1630   102.7980 c3         1 GSO      -0.254000
      8 SG2          7.7730    -6.8500   101.4460 ss         1 GSO       0.032000
      9 CG           6.4270    -2.0450   101.9160 c3         1 GSO      -0.180000
     10 CD           6.7320    -3.0120   103.0360 c          1 GSO       0.299000
     11 OE           6.1540    -2.9850   104.1170 o          1 GSO      -0.367000
     12 N2           7.7110    -3.9560   102.7100 ns         1 GSO      -0.389000
     13 CA2          8.1130    -5.0530   103.6040 c3         1 GSO      -0.003000
     14 C2           8.9560    -4.5610   104.7810 c          1 GSO       0.308000
     15 O2           8.8210    -5.0040   105.9190 o          1 GSO      -0.427000
     16 N3           9.9610    -3.6450   104.4260 ns         1 GSO      -0.316000
     17 CA3         10.9120    -3.0410   105.3750 c3         1 GSO      -0.112000
     18 C3          10.8970    -1.5240   105.3050 c          1 GSO       0.332000
     19 O31         11.4410    -0.9350   104.3780 o          1 GSO      -0.570000
     20 O32         10.3640    -0.8610   106.1870 o          1 GSO      -0.570000
     21 OF2          5.0330    -7.8680   100.5010 oh         1 GSO      -0.316000
     22 CD2          6.4820    -7.7310   102.4390 c3         1 GSO      -0.240000
     23 CG2          5.9860   -12.0280   100.1630 c2         1 GSO      -1.236000
     24 Cl1          5.4400   -11.4130   101.7160 cl         1 GSO       1.274000
     25 Cl2          7.3290   -12.5680   101.1730 cl         1 GSO       1.733000
     26 CM1          6.1680    -9.8840   101.0670 c2         1 GSO      -0.828000
     27 CM2          7.4040   -11.2200    99.8660 c2         1 GSO      -1.075000
     28 CZ           7.0900    -9.9330   100.1170 c2         1 GSO       0.126000
     29 C22          5.5260    -8.6100   101.6000 c3         1 GSO       0.127000
     30 HN1          3.9060    -1.6060    98.0610 hn         1 GSO       0.101000
     31 HN2          3.4180    -2.6310    99.2350 hn         1 GSO       0.101000
     32 HA           4.6290    -0.8460   100.1460 h1         1 GSO       0.045000
     33 HBC1         6.1110    -3.5170   100.3440 hc         1 GSO       0.074000
     34 HBC2         4.6550    -3.0860   101.2320 hc         1 GSO       0.074000
     35 HB21         9.7470    -5.7610   102.3520 h1         1 GSO       0.116500
     36 HB22         9.1130    -6.9830   103.4700 h1         1 GSO       0.116500
     37 HGC1         5.9000    -1.1750   102.3260 hc         1 GSO       0.112500
     38 HGC2         7.3650    -1.6580   101.4990 hc         1 GSO       0.112500
     39 H2           8.0830    -3.9430   101.7670 hn         1 GSO       0.244000
     40 HA2          7.1950    -5.4800   104.0290 h1         1 GSO       0.117000
     41 H3           9.9690    -3.3170   103.4670 hn         1 GSO       0.228000
     42 HA31        11.9190    -3.4080   105.1390 h1         1 GSO       0.072000
     43 HA32        10.6730    -3.3650   106.3970 h1         1 GSO       0.072000
     44 HF2          5.3430    -8.3470    99.7080 ho         1 GSO       0.187000
     45 HD21         5.8870    -6.9750   102.9660 h1         1 GSO       0.126500
     46 HD22         6.9800    -8.3510   103.1930 h1         1 GSO       0.126500
     47 HL1          5.4830    -8.9980    98.1790 ha         1 GSO      -0.264000
     48 HL2          5.7900   -11.6180    98.5020 ha         1 GSO      -0.349000
     49 HM2          8.0850   -11.5050    99.0710 h4         1 GSO       0.170000
     50 HZ           7.4340    -9.0690    99.5350 ha         1 GSO       0.135000
     51 H22          4.6790    -8.8700   102.2540 h1         1 GSO       0.057000
     52 HG2          5.4180   -12.9350    99.9910 h5         1 GSO       0.225000
@<TRIPOS>BOND
     1     1     2 1   
     2     1     3 1   
     3     1     5 1   
     4     4     5 1   
     5     4    30 1   
     6     4    31 1   
     7     5     6 1   
     8     5    32 1   
     9     6     9 1   
    10     6    33 1   
    11     6    34 1   
    12     7     8 1   
    13     7    13 1   
    14     7    35 1   
    15     7    36 1   
    16     8    22 1   
    17     9    10 1   
    18     9    37 1   
    19     9    38 1   
    20    10    11 1   
    21    10    12 1   
    22    12    13 1   
    23    12    39 1   
    24    13    14 1   
    25    13    40 1   
    26    14    15 1   
    27    14    16 1   
    28    16    17 1   
    29    16    41 1   
    30    17    18 1   
    31    17    42 1   
    32    17    43 1   
    33    18    19 1   
    34    18    20 1   
    35    21    29 1   
    36    21    44 1   
    37    22    29 1   
    38    22    45 1   
    39    22    46 1   
    40    23    24 1   
    41    23    25 1   
    42    23    52 1   
    43    24    26 1   
    44    24    47 1   
    45    25    27 1   
    46    25    48 1   
    47    26    28 1   
    48    26    29 1   
    49    27    28 1   
    50    27    49 1   
    51    28    50 1   
    52    29    51 1   
@<TRIPOS>SUBSTRUCTURE
     1 GSO         1 TEMP              0 ****  ****    0 ROOT
