@<TRIPOS>MOLECULE
GSO
   52    52     1     0     0
SMALL
abcg2


@<TRIPOS>ATOM
      1 C            5.7480    -0.5590    99.7400 c2         1 GSO       0.338000
      2 OT1          5.9480     0.5900   100.2140 o          1 GSO      -0.569000
      3 OT2          6.3700    -1.0840    98.7830 o          1 GSO      -0.569000
      4 N            3.5920    -1.7540    99.4510 n8         1 GSO      -0.300000
      5 CA           4.6380    -1.4030   100.4260 c3         1 GSO      -0.122000
      6 CB           5.2110    -2.6900   101.0130 c3         1 GSO      -0.129000
      7 CB2          8.8310    -6.2800   101.0130 c3         1 GSO      -0.254000
      8 SG2          7.8800    -6.0190    99.4800 ss         1 GSO       0.032000
      9 CG           6.2580    -2.4330   102.1070 c3         1 GSO      -0.180000
     10 CD           6.7470    -3.7440   102.6740 c2         1 GSO       0.299000
     11 OE           6.1810    -4.3170   103.6030 o          1 GSO      -0.367000
     12 N2           7.8280    -4.2790   102.0530 ns         1 GSO      -0.389000
     13 CA2          8.2460    -5.6440   102.2810 c3         1 GSO      -0.003000
     14 C2           9.2760    -5.8080   103.4100 c2         1 GSO       0.308000
     15 O2           9.5570    -6.9370   103.8180 o          1 GSO      -0.427000
     16 N3           9.8450    -4.6860   103.8600 ns         1 GSO      -0.316000
     17 CA3         10.7860    -4.6650   104.9580 c3         1 GSO      -0.112000
     18 C3          10.1630    -4.6600   106.3800 c2         1 GSO       0.332000
     19 O31          8.9170    -4.6180   106.4880 o          1 GSO      -0.570000
     20 O32         11.0090    -4.6930   107.3070 o          1 GSO      -0.570000
     21 OF2          5.8690    -8.2940    98.5040 oh         1 GSO      -0.316000
     22 CD2          6.1550    -6.4010    99.9190 c3         1 GSO      -0.240000
     23 CG2          6.7840    -9.4890   103.1210 c2         1 GSO      -1.236000
     24 CL1          6.0950    -8.7320   102.1820 cl         1 GSO       1.274000
     25 CL2          7.8620   -10.2760   102.7260 cl         1 GSO       1.733000
     26 CM1          6.4750    -8.7440   100.8400 c2         1 GSO      -0.828000
     27 CM2          8.2410   -10.3000   101.3880 c2         1 GSO      -1.075000
     28 CZ           7.5500    -9.5380   100.4490 c2         1 GSO       0.126000
     29 C22          5.7300    -7.8680    99.8560 c3         1 GSO       0.127000
     30 HN1          3.1870    -0.9060    99.0650 hn         1 GSO       0.101000
     31 HN2          2.8350    -2.2290    99.9350 hn         1 GSO       0.101000
     32 HA           4.2420    -0.7930   101.2470 h1         1 GSO       0.045000
     33 HBC1         5.6550    -3.2730   100.2030 hc         1 GSO       0.074000
     34 HBC2         4.3930    -3.2830   101.4340 hc         1 GSO       0.074000
     35 HB21         9.8020    -5.8340   100.7840 h1         1 GSO       0.116500
     36 HB22         8.9800    -7.3390   101.2000 h1         1 GSO       0.116500
     37 HGC1         5.8180    -1.8560   102.9210 hc         1 GSO       0.112500
     38 HGC2         7.0940    -1.8620   101.6970 hc         1 GSO       0.112500
     39 H2           8.1790    -3.8120   101.2300 hn         1 GSO       0.244000
     40 HA2          7.3750    -6.2150   102.6030 h1         1 GSO       0.117000
     41 H3           9.4820    -3.8110   103.5160 hn         1 GSO       0.228000
     42 HA31        11.4060    -3.7740   104.8590 h1         1 GSO       0.072000
     43 HA32        11.4390    -5.5330   104.8820 h1         1 GSO       0.072000
     44 HF2          5.5500    -9.2030    98.4360 ho         1 GSO       0.187000
     45 HD21         5.5630    -5.8380    99.1970 h1         1 GSO       0.126500
     46 HD22         5.9300    -5.9970   100.9040 h1         1 GSO       0.126500
     47 HL1          5.2530    -8.1230   102.4930 ha         1 GSO      -0.264000
     48 HL2          8.4010   -10.8670   103.4560 ha         1 GSO      -0.349000
     49 HM2          9.0780   -10.9100   101.0720 h4         1 GSO       0.170000
     50 HZ           7.8510    -9.5540    99.4100 ha         1 GSO       0.135000
     51 H22          4.6680    -7.8800   100.1330 h1         1 GSO       0.057000
     52 HG2          6.4800    -9.4650   104.1600 h5         1 GSO       0.225000
@<TRIPOS>BOND
     1     1     2 1   
     2     1     3 1   
     3     1     5 1   
     4     4     5 1   
     5     4    30 1   
     6     4    31 1   
     7     5     6 1   
     8     5    32 1   
     9     6     9 1   
    10     6    33 1   
    11     6    34 1   
    12     7     8 1   
    13     7    13 1   
    14     7    35 1   
    15     7    36 1   
    16     8    22 1   
    17     9    10 1   
    18     9    37 1   
    19     9    38 1   
    20    10    11 1   
    21    10    12 1   
    22    12    13 1   
    23    12    39 1   
    24    13    14 1   
    25    13    40 1   
    26    14    15 1   
    27    14    16 1   
    28    16    17 1   
    29    16    41 1   
    30    17    18 1   
    31    17    42 1   
    32    17    43 1   
    33    18    19 1   
    34    18    20 1   
    35    21    29 1   
    36    21    44 1   
    37    22    29 1   
    38    22    45 1   
    39    22    46 1   
    40    23    24 1   
    41    23    25 1   
    42    23    52 1   
    43    24    26 1   
    44    24    47 1   
    45    25    27 1   
    46    25    48 1   
    47    26    28 1   
    48    26    29 1   
    49    27    28 1   
    50    27    49 1   
    51    28    50 1   
    52    29    51 1   
@<TRIPOS>SUBSTRUCTURE
     1 GSO         1 TEMP              0 ****  ****    0 ROOT
