@<TRIPOS>MOLECULE
GSQ
   53    56     1     0     0
SMALL
No Charge or Current Charge


@<TRIPOS>ATOM
      1 Cl          -5.7120    -1.4440    -3.2370 cl         1 GSQ      -0.207000
      2 C13         -5.2950    -2.7720    -2.1620 ca         1 GSQ       0.079000
      3 C14         -5.8990    -4.0390    -2.3430 ca         1 GSQ      -0.063000
      4 C11         -5.5680    -5.1150    -1.4890 ca         1 GSQ      -0.134000
      5 C6          -4.6320    -4.8860    -0.4710 ca         1 GSQ      -0.019200
      6 N1          -4.1620    -5.7890     0.4690 na         1 GSQ      -0.182700
      7 C5          -4.0550    -3.6580    -0.3000 ca         1 GSQ      -0.124800
      8 C10         -4.3590    -2.5680    -1.1270 ca         1 GSQ      -0.027000
      9 C2          -3.1650    -3.7540     0.8160 cc         1 GSQ      -0.058200
     10 C1          -3.2420    -5.0650     1.2800 cd         1 GSQ      -0.295200
     11 S4          -2.3650    -5.7210     2.6900 sy         1 GSQ       1.221200
     12 O8          -1.8960    -4.6250     3.5410 o          1 GSQ      -0.536000
     13 O9          -3.0150    -6.9250     3.2130 o          1 GSQ      -0.536000
     14 N7          -1.0530    -6.2510     1.8090 n7         1 GSQ      -0.933300
     15 C12          0.2870    -5.5870     1.9630 c5         1 GSQ       0.169500
     16 C15          0.4500    -4.2140     1.2330 c          1 GSQ       0.531000
     17 O19          0.1170    -3.0940     1.5970 o          1 GSQ      -0.539000
     18 C16          1.3220    -6.5080     1.2550 c5         1 GSQ      -0.105400
     19 C20          1.4010    -5.9330    -0.1880 c5         1 GSQ       0.094000
     20 N18          1.1100    -4.5020     0.0320 n          1 GSQ      -0.413800
     21 C21          1.5180    -3.4110    -0.9020 c3         1 GSQ       0.043700
     22 C23          2.8890    -2.8320    -0.4690 c3         1 GSQ      -0.097100
     23 C22          1.5070    -3.8220    -2.4140 c          1 GSQ       0.595100
     24 O25          2.5000    -3.6770    -3.1210 o          1 GSQ      -0.597100
     25 N24          0.3670    -4.4830    -2.9350 n          1 GSQ      -0.409800
     26 C26          0.4230    -5.0300    -4.3310 c6         1 GSQ       0.056500
     27 C28         -0.7640    -5.9480    -4.7100 c6         1 GSQ       0.138100
     28 O30         -2.0070    -5.3140    -4.3710 os         1 GSQ      -0.444000
     29 C29         -2.1310    -5.0770    -2.9580 c6         1 GSQ       0.138100
     30 C27         -1.0110    -4.1290    -2.4550 c6         1 GSQ       0.056500
     31 H14         -6.6200    -4.1850    -3.1440 ha         1 GSQ       0.130000
     32 H10         -3.8910    -1.5980    -0.9780 ha         1 GSQ       0.137000
     33 H11         -6.0260    -6.0930    -1.6210 ha         1 GSQ       0.124000
     34 H1          -4.4520    -6.7580     0.5820 hn         1 GSQ       0.366000
     35 H2          -2.5610    -2.9570     1.2490 ha         1 GSQ       0.229000
     36 H7          -1.4110    -6.1080     0.8660 hn         1 GSQ       0.503000
     37 H12          0.5580    -5.4540     3.0210 h1         1 GSQ       0.113700
     38 H161         1.0570    -7.5710     1.2790 hc         1 GSQ       0.073700
     39 H162         2.2980    -6.4140     1.7450 hc         1 GSQ       0.073700
     40 H201         2.3880    -6.0940    -0.6420 h1         1 GSQ       0.059700
     41 H202         0.6420    -6.3850    -0.8400 h1         1 GSQ       0.059700
     42 H21          0.7790    -2.6040    -0.8240 h1         1 GSQ       0.090700
     43 H231         3.6760    -3.5910    -0.5510 hc         1 GSQ       0.052700
     44 H232         3.1650    -1.9750    -1.0950 hc         1 GSQ       0.052700
     45 H233         2.8520    -2.4890     0.5710 hc         1 GSQ       0.052700
     46 H261         1.3550    -5.5980    -4.4640 h1         1 GSQ       0.070950
     47 H262         0.4550    -4.1880    -5.0370 h1         1 GSQ       0.070950
     48 H271        -1.2440    -3.1080    -2.7890 h1         1 GSQ       0.070950
     49 H272        -1.0470    -4.1200    -1.3580 h1         1 GSQ       0.070950
     50 H281        -0.7460    -6.1590    -5.7890 h1         1 GSQ       0.049450
     51 H282        -0.6860    -6.9050    -4.1740 h1         1 GSQ       0.049450
     52 H291        -2.0820    -6.0360    -2.4240 h1         1 GSQ       0.049450
     53 H292        -3.1120    -4.6280    -2.7630 h1         1 GSQ       0.049450
@<TRIPOS>BOND
     1     1     2 1   
     2     2     3 ar  
     3     2     8 ar  
     4     3     4 ar  
     5     3    31 1   
     6     4     5 ar  
     7     4    33 1   
     8     5     6 1   
     9     5     7 ar  
    10     6    10 1   
    11     6    34 1   
    12     7     8 ar  
    13     7     9 1   
    14     8    32 1   
    15     9    10 2   
    16     9    35 1   
    17    10    11 1   
    18    11    12 2   
    19    11    13 2   
    20    11    14 1   
    21    14    15 1   
    22    14    36 1   
    23    15    16 1   
    24    15    18 1   
    25    15    37 1   
    26    16    17 2   
    27    16    20 1   
    28    18    19 1   
    29    18    38 1   
    30    18    39 1   
    31    19    20 1   
    32    19    40 1   
    33    19    41 1   
    34    20    21 1   
    35    21    22 1   
    36    21    23 1   
    37    21    42 1   
    38    22    43 1   
    39    22    44 1   
    40    22    45 1   
    41    23    24 2   
    42    23    25 1   
    43    25    26 1   
    44    25    30 1   
    45    26    27 1   
    46    26    46 1   
    47    26    47 1   
    48    27    28 1   
    49    27    50 1   
    50    27    51 1   
    51    28    29 1   
    52    29    30 1   
    53    29    52 1   
    54    29    53 1   
    55    30    48 1   
    56    30    49 1   
@<TRIPOS>SUBSTRUCTURE
     1 GSQ         1 TEMP              0 ****  ****    0 ROOT
