@<TRIPOS>MOLECULE
GSQ
   53    56     1     0     0
SMALL
bcc


@<TRIPOS>ATOM
      1 CL          -6.4330    -0.1350    -1.1260 cl         1 GSQ      -0.115400
      2 C13         -5.7470    -1.7080    -0.8460 ca         1 GSQ      -0.012600
      3 C14         -5.9690    -2.7090    -1.8070 ca         1 GSQ      -0.081000
      4 C11         -5.4460    -3.9710    -1.6350 ca         1 GSQ      -0.152000
      5 C6          -4.6950    -4.2080    -0.4840 ca         1 GSQ      -0.019200
      6 N1          -4.0600    -5.3390    -0.0660 na         1 GSQ      -0.132400
      7 C5          -4.4790    -3.2080     0.4870 ca         1 GSQ      -0.124800
      8 C10         -5.0160    -1.9280     0.2970 ca         1 GSQ      -0.045000
      9 C2          -3.6970    -3.7900     1.5240 cc         1 GSQ      -0.008200
     10 C1          -3.4800    -5.0800     1.1460 cd         1 GSQ      -0.295200
     11 S4          -2.5130    -6.2870     1.9590 sy         1 GSQ       1.362800
     12 O8          -2.3430    -5.8240     3.3220 o          1 GSQ      -0.606800
     13 O9          -3.1220    -7.5720     1.6600 o          1 GSQ      -0.606800
     14 N7          -1.0390    -6.3250     1.2610 n7         1 GSQ      -0.878100
     15 C12          0.0360    -5.3940     1.5520 c5         1 GSQ       0.169500
     16 C15          0.0660    -4.2380     0.5480 c          1 GSQ       0.673500
     17 O19         -0.7150    -3.3050     0.5160 o          1 GSQ      -0.614500
     18 C16          1.4100    -6.0360     1.3870 c5         1 GSQ      -0.105400
     19 C20          1.8450    -5.6660    -0.0300 c5         1 GSQ       0.094000
     20 N18          1.0840    -4.4580    -0.3060 n          1 GSQ      -0.480800
     21 C21          1.4490    -3.5390    -1.3670 c3         1 GSQ       0.043700
     22 C23          2.7020    -2.7490    -1.0220 c3         1 GSQ      -0.097100
     23 C22          1.6260    -4.3430    -2.6630 c          1 GSQ       0.662100
     24 O25          2.7480    -4.6160    -3.0610 o          1 GSQ      -0.597100
     25 N24          0.5120    -4.7620    -3.2960 n          1 GSQ      -0.476800
     26 C26          0.5970    -5.6480    -4.4470 c6         1 GSQ       0.056500
     27 C28         -0.1980    -6.9120    -4.1680 c6         1 GSQ       0.114900
     28 O30         -1.5370    -6.6220    -3.8330 os         1 GSQ      -0.397600
     29 C29         -1.6220    -5.7710    -2.7170 c6         1 GSQ       0.114900
     30 C27         -0.8650    -4.4720    -2.9380 c6         1 GSQ       0.056500
     31 H14         -6.5560    -2.4860    -2.6880 ha         1 GSQ       0.148000
     32 H10         -4.8590    -1.1440     1.0250 ha         1 GSQ       0.155000
     33 H11         -5.6170    -4.7450    -2.3730 ha         1 GSQ       0.142000
     34 H1          -4.1700    -6.2540    -0.4760 hn         1 GSQ       0.315700
     35 H2          -3.3260    -3.3090     2.4130 ha         1 GSQ       0.179000
     36 H7          -0.9630    -6.9310     0.4540 hn         1 GSQ       0.447800
     37 H12         -0.1140    -5.0070     2.5580 h1         1 GSQ       0.113700
     38 H161         1.4010    -7.1100     1.5620 hc         1 GSQ       0.073700
     39 H162         2.0940    -5.5860     2.1060 hc         1 GSQ       0.073700
     40 H201         2.9160    -5.4770    -0.0890 h1         1 GSQ       0.059700
     41 H202         1.6100    -6.4490    -0.7580 h1         1 GSQ       0.059700
     42 H21          0.6280    -2.8290    -1.4730 h1         1 GSQ       0.090700
     43 H231         3.5740    -3.3860    -0.8870 hc         1 GSQ       0.052700
     44 H232         2.9270    -2.0320    -1.8120 hc         1 GSQ       0.052700
     45 H233         2.5360    -2.1900    -0.1020 hc         1 GSQ       0.052700
     46 H261         1.6340    -5.8980    -4.6520 h1         1 GSQ       0.070950
     47 H262         0.1930    -5.1350    -5.3250 h1         1 GSQ       0.070950
     48 H271        -1.3290    -3.9140    -3.7580 h1         1 GSQ       0.070950
     49 H272        -0.9420    -3.8510    -2.0510 h1         1 GSQ       0.070950
     50 H281        -0.2140    -7.5440    -5.0570 h1         1 GSQ       0.049450
     51 H282         0.2890    -7.4760    -3.3600 h1         1 GSQ       0.049450
     52 H291        -1.2300    -6.2690    -1.8180 h1         1 GSQ       0.049450
     53 H292        -2.6780    -5.5570    -2.5500 h1         1 GSQ       0.049450
@<TRIPOS>BOND
     1     1     2 1   
     2     2     3 ar  
     3     2     8 ar  
     4     3     4 ar  
     5     3    31 1   
     6     4     5 ar  
     7     4    33 1   
     8     5     6 1   
     9     5     7 ar  
    10     6    10 1   
    11     6    34 1   
    12     7     8 ar  
    13     7     9 1   
    14     8    32 1   
    15     9    10 2   
    16     9    35 1   
    17    10    11 1   
    18    11    12 2   
    19    11    13 2   
    20    11    14 1   
    21    14    15 1   
    22    14    36 1   
    23    15    16 1   
    24    15    18 1   
    25    15    37 1   
    26    16    17 2   
    27    16    20 1   
    28    18    19 1   
    29    18    38 1   
    30    18    39 1   
    31    19    20 1   
    32    19    40 1   
    33    19    41 1   
    34    20    21 1   
    35    21    22 1   
    36    21    23 1   
    37    21    42 1   
    38    22    43 1   
    39    22    44 1   
    40    22    45 1   
    41    23    24 2   
    42    23    25 1   
    43    25    26 1   
    44    25    30 1   
    45    26    27 1   
    46    26    46 1   
    47    26    47 1   
    48    27    28 1   
    49    27    50 1   
    50    27    51 1   
    51    28    29 1   
    52    29    30 1   
    53    29    52 1   
    54    29    53 1   
    55    30    48 1   
    56    30    49 1   
@<TRIPOS>SUBSTRUCTURE
     1 GSQ         1 TEMP              0 ****  ****    0 ROOT
