@<TRIPOS>MOLECULE
GSU
   52    54     1     0     0
SMALL
bcc


@<TRIPOS>ATOM
      1 C2           5.0960     1.9920    -1.1650 ca         1 GSU       0.707900
      2 S           -2.3770    -2.4060    -0.5760 s6         1 GSU       1.575100
      3 N           -1.4810     2.6890    -0.5930 n8         1 GSU      -0.877800
      4 CA          -2.2360     1.5830    -0.0660 c3         1 GSU       0.094500
      5 CB          -3.7490     1.8220    -0.2170 c3         1 GSU      -0.043400
      6 CG          -4.2130     3.0390     0.5640 c3         1 GSU      -0.205400
      7 CD          -5.7200     3.3400     0.4840 c          1 GSU       0.927600
      8 OE1         -6.1290     4.2530     1.2310 o          1 GSU      -0.844300
      9 OE2         -6.4090     2.6720    -0.3110 o          1 GSU      -0.844300
     10 C           -1.8910     0.2460    -0.7200 c          1 GSU       0.648100
     11 O           -1.3330     0.1220    -1.7800 o          1 GSU      -0.543100
     12 N10         -2.3030    -0.8550     0.0190 ns         1 GSU      -0.692300
     13 O1S         -3.0010    -3.1760     0.4700 o          1 GSU      -0.614300
     14 O2S         -2.8890    -2.4070    -1.9170 o          1 GSU      -0.614300
     15 O5          -0.8550    -2.8190    -0.7310 os         1 GSU      -0.528500
     16 C4           1.3510    -3.2510     0.0140 c5         1 GSU       0.144100
     17 O4           1.8120    -2.0490    -0.5970 os         1 GSU      -0.370600
     18 C1           2.7820    -1.4250     0.2020 c5         1 GSU       0.260800
     19 N9           2.5460    -0.0060     0.2150 na         1 GSU      -0.257000
     20 C9           3.3740     0.9660    -0.2740 ca         1 GSU       0.473800
     21 N3           4.5850     0.8270    -0.8040 nb         1 GSU      -0.746000
     22 N1           4.5560     3.2030    -1.0510 nb         1 GSU      -0.833000
     23 C6           3.3370     3.3260    -0.5160 ca         1 GSU       0.780200
     24 N6           2.7850     4.5360    -0.4130 nv         1 GSU      -0.946500
     25 C5           2.6830     2.1530    -0.0980 ca         1 GSU      -0.227200
     26 N7           1.4580     1.9210     0.4760 nc         1 GSU      -0.548100
     27 C8           1.4170     0.6340     0.6420 cd         1 GSU       0.411700
     28 C7           2.6770    -2.0820     1.5780 c5         1 GSU       0.056100
     29 O2           3.8960    -1.9700     2.2470 oh         1 GSU      -0.571800
     30 C3           2.2770    -3.5100     1.1980 c5         1 GSU       0.083100
     31 O3           3.3860    -4.2350     0.7420 oh         1 GSU      -0.578800
     32 HC2          6.0850     1.9630    -1.6090 h5         1 GSU       0.042100
     33 HA          -2.0130     1.4960     1.0040 h1         1 GSU       0.057700
     34 HB2         -3.9820     1.9380    -1.2800 hc         1 GSU       0.047700
     35 HB3         -4.2970     0.9400     0.1210 hc         1 GSU       0.047700
     36 HG2         -3.9380     2.9220     1.6180 hc         1 GSU       0.026700
     37 HG3         -3.6680     3.9230     0.2220 hc         1 GSU       0.026700
     38 H10         -2.7500    -0.7200     0.9190 hn         1 GSU       0.349500
     39 H4           1.4200    -4.0660    -0.7130 h1         1 GSU       0.112700
     40 H1           3.7880    -1.5660    -0.2080 h2         1 GSU       0.122700
     41 HN61         1.9200     4.6670     0.0820 hn         1 GSU       0.451800
     42 HN62         3.3260     5.3540    -0.6360 hn         1 GSU       0.451800
     43 H8           0.5860     0.0990     1.0770 h5         1 GSU       0.061800
     44 H2           1.8620    -1.6230     2.1510 h1         1 GSU       0.052700
     45 HO2          3.7480    -2.1030     3.1890 ho         1 GSU       0.415000
     46 H3           1.7630    -4.0240     2.0200 h1         1 GSU       0.054700
     47 HO3          4.1150    -4.0790     1.3550 ho         1 GSU       0.423000
     48 H           -0.4990     2.5940    -0.3590 hn         1 GSU       0.355800
     49 C10         -0.0900    -3.1070     0.4550 c3         1 GSU       0.165400
     50 H6          -1.5510     2.7130    -1.6030 hn         1 GSU       0.355800
     51 H5'1        -0.2140    -2.3070     1.1910 h1         1 GSU       0.049200
     52 H5'2        -0.4330    -4.0430     0.8970 h1         1 GSU       0.049200
@<TRIPOS>BOND
     1     1    21 ar  
     2     1    22 ar  
     3     1    32 1   
     4     2    12 1   
     5     2    13 2   
     6     2    14 2   
     7     2    15 1   
     8     3     4 1   
     9     3    48 1   
    10     3    50 1   
    11     4     5 1   
    12     4    10 1   
    13     4    33 1   
    14     5     6 1   
    15     5    34 1   
    16     5    35 1   
    17     6     7 1   
    18     6    36 1   
    19     6    37 1   
    20     7     8 1   
    21     7     9 1   
    22    10    11 2   
    23    10    12 1   
    24    12    38 1   
    25    15    49 1   
    26    16    17 1   
    27    16    30 1   
    28    16    39 1   
    29    16    49 1   
    30    17    18 1   
    31    18    19 1   
    32    18    28 1   
    33    18    40 1   
    34    19    20 1   
    35    19    27 1   
    36    20    21 ar  
    37    20    25 ar  
    38    22    23 ar  
    39    23    24 1   
    40    23    25 ar  
    41    24    41 1   
    42    24    42 1   
    43    25    26 1   
    44    26    27 2   
    45    27    43 1   
    46    28    29 1   
    47    28    30 1   
    48    28    44 1   
    49    29    45 1   
    50    30    31 1   
    51    30    46 1   
    52    31    47 1   
    53    49    51 1   
    54    49    52 1   
@<TRIPOS>SUBSTRUCTURE
     1 GSU         1 TEMP              0 ****  ****    0 ROOT
