@<TRIPOS>MOLECULE
GSU
   52    54     1     0     0
SMALL
No Charge or Current Charge


@<TRIPOS>ATOM
      1 C2           5.2620     2.2020    -0.5790 ca         1 GSU       0.707900
      2 S           -2.4230    -2.4000     0.4070 s6         1 GSU       1.575100
      3 N           -1.5940     2.5880    -0.7480 n8         1 GSU      -0.877800
      4 CA          -2.5850     1.6290    -0.1520 c3         1 GSU       0.094500
      5 CB          -4.0370     2.0840    -0.4640 c3         1 GSU      -0.043400
      6 CG          -4.4380     3.4490     0.1630 c3         1 GSU      -0.205400
      7 CD          -5.9180     3.7530    -0.1260 c          1 GSU       0.927600
      8 OE1         -6.7610     3.3390     0.6590 o          1 GSU      -0.844300
      9 OE2         -6.2030     4.3470    -1.1580 o          1 GSU      -0.844300
     10 C           -2.3890     0.1220    -0.5560 c          1 GSU       0.648100
     11 O           -2.2460    -0.2280    -1.7180 o          1 GSU      -0.543100
     12 N10         -2.3480    -0.7510     0.4820 ns         1 GSU      -0.692300
     13 O1S         -2.5290    -2.8880     1.7860 o          1 GSU      -0.614300
     14 O2S         -3.4120    -2.7760    -0.6090 o          1 GSU      -0.614300
     15 O5          -0.9170    -2.7010    -0.1750 os         1 GSU      -0.528500
     16 C4           1.4070    -3.3970    -0.0050 c5         1 GSU       0.144100
     17 O4           1.8370    -2.2550    -0.7940 os         1 GSU      -0.370600
     18 C1           2.8970    -1.5500    -0.1010 c5         1 GSU       0.260800
     19 N9           2.5710    -0.1340    -0.0380 na         1 GSU      -0.257000
     20 C9           3.4030     0.9340    -0.2100 ca         1 GSU       0.473800
     21 N3           4.7170     0.9750    -0.4690 nb         1 GSU      -0.746000
     22 N1           4.6130     3.3740    -0.4570 nb         1 GSU      -0.833000
     23 C6           3.3210     3.2720    -0.2150 ca         1 GSU       0.780200
     24 N6           2.7310     4.4610    -0.1020 nv         1 GSU      -0.946500
     25 C5           2.6490     2.0570    -0.0740 ca         1 GSU      -0.227200
     26 N7           1.3060     1.7830     0.1910 nc         1 GSU      -0.548100
     27 C8           1.3110     0.4380     0.1970 cd         1 GSU       0.411700
     28 C7           3.0690    -2.2740     1.2750 c5         1 GSU       0.056100
     29 O2           4.4050    -2.2240     1.7980 oh         1 GSU      -0.571800
     30 C3           2.6360    -3.7210     0.9000 c5         1 GSU       0.083100
     31 O3           3.6660    -4.4100     0.1810 oh         1 GSU      -0.578800
     32 HC2          6.3320     2.2490    -0.7840 h5         1 GSU       0.042100
     33 HA          -2.4540     1.6790     0.9370 h1         1 GSU       0.057700
     34 HB2         -4.1830     2.1220    -1.5510 hc         1 GSU       0.047700
     35 HB3         -4.7270     1.3170    -0.0870 hc         1 GSU       0.047700
     36 HG2         -4.2760     3.3440     1.2420 hc         1 GSU       0.026700
     37 HG3         -3.8000     4.2060    -0.3090 hc         1 GSU       0.026700
     38 H10         -2.4850    -0.4330     1.4250 hn         1 GSU       0.349500
     39 H4           1.1850    -4.2330    -0.6810 h1         1 GSU       0.112700
     40 H1           3.8240    -1.6350    -0.6840 h2         1 GSU       0.122700
     41 HN61         1.8340     4.4520     0.3650 hn         1 GSU       0.451800
     42 HN62         3.3520     5.2310     0.0940 hn         1 GSU       0.451800
     43 H8           0.4430    -0.1860     0.3660 h5         1 GSU       0.061800
     44 H2           2.3750    -1.8440     2.0100 h1         1 GSU       0.052700
     45 HO2          4.3540    -2.4000     2.7630 ho         1 GSU       0.415000
     46 H3           2.3430    -4.2970     1.7880 h1         1 GSU       0.054700
     47 HO3          4.5160    -4.0940     0.5620 ho         1 GSU       0.423000
     48 H           -0.6420     2.3420    -0.4410 hn         1 GSU       0.355800
     49 C10          0.1000    -3.0650     0.7750 c3         1 GSU       0.165400
     50 H6          -1.5700     2.4570    -1.7650 hn         1 GSU       0.355800
     51 H5'1         0.2780    -2.2500     1.4890 h1         1 GSU       0.049200
     52 H5'2        -0.1920    -3.9590     1.3430 h1         1 GSU       0.049200
@<TRIPOS>BOND
     1     1    21 ar  
     2     1    22 ar  
     3     1    32 1   
     4     2    12 1   
     5     2    13 2   
     6     2    14 2   
     7     2    15 1   
     8     3     4 1   
     9     3    48 1   
    10     3    50 1   
    11     4     5 1   
    12     4    10 1   
    13     4    33 1   
    14     5     6 1   
    15     5    34 1   
    16     5    35 1   
    17     6     7 1   
    18     6    36 1   
    19     6    37 1   
    20     7     8 1   
    21     7     9 1   
    22    10    11 2   
    23    10    12 1   
    24    12    38 1   
    25    15    49 1   
    26    16    17 1   
    27    16    30 1   
    28    16    39 1   
    29    16    49 1   
    30    17    18 1   
    31    18    19 1   
    32    18    28 1   
    33    18    40 1   
    34    19    20 1   
    35    19    27 1   
    36    20    21 ar  
    37    20    25 ar  
    38    22    23 ar  
    39    23    24 1   
    40    23    25 ar  
    41    24    41 1   
    42    24    42 1   
    43    25    26 1   
    44    26    27 2   
    45    27    43 1   
    46    28    29 1   
    47    28    30 1   
    48    28    44 1   
    49    29    45 1   
    50    30    31 1   
    51    30    46 1   
    52    31    47 1   
    53    49    51 1   
    54    49    52 1   
@<TRIPOS>SUBSTRUCTURE
     1 GSU         1 TEMP              0 ****  ****    0 ROOT
