@<TRIPOS>MOLECULE
GSV
   57    60     1     0     0
SMALL
bcc


@<TRIPOS>ATOM
      1 C35          5.7160     1.3770    16.2730 c3         1 GSV      -0.225300
      2 S32          7.2410     1.8710    15.5060 sy         1 GSV       1.084300
      3 O37          7.3130     3.3290    15.4900 o          1 GSV      -0.593300
      4 O36          7.3380     1.1710    14.2260 o          1 GSV      -0.593300
      5 C29          8.5230     1.2210    16.5670 ca         1 GSV      -0.241500
      6 C31          9.3120     0.2080    16.0370 ca         1 GSV      -0.042000
      7 C34         10.3280    -0.3490    16.7970 ca         1 GSV      -0.140000
      8 C33         10.5430     0.1010    18.0900 ca         1 GSV      -0.075000
      9 C30          9.7480     1.1080    18.6160 ca         1 GSV      -0.135000
     10 C28          8.7300     1.6950    17.8680 cp         1 GSV       0.050000
     11 C27          7.9250     2.7560    18.5240 cp         1 GSV      -0.065000
     12 C26          8.1380     4.0980    18.2330 ca         1 GSV      -0.107000
     13 C22          7.4180     5.0590    18.9120 ca         1 GSV       0.152900
     14 F            7.5980     6.3430    18.5920 f          1 GSV      -0.118900
     15 C24          6.9970     2.4080    19.5020 ca         1 GSV      -0.125000
     16 C21          6.2950     3.3880    20.1840 ca         1 GSV      -0.128000
     17 C15          6.5000     4.7330    19.9020 ca         1 GSV       0.018600
     18 N2           5.7960     5.7320    20.5890 n          1 GSV      -0.390000
     19 C50          6.3990     6.6860    21.3350 c          1 GSV       0.681500
     20 O3           7.5910     6.8960    21.4160 o          1 GSV      -0.603500
     21 C14          4.3430     5.7090    20.7480 c5         1 GSV       0.102000
     22 C13          4.0480     7.1120    21.2680 c5         1 GSV      -0.095400
     23 C12          5.2970     7.4300    22.0840 c5         1 GSV       0.156500
     24 N1           5.5590     8.8340    22.2560 n7         1 GSV      -0.840100
     25 S1           6.0130     9.5200    23.6770 s6         1 GSV       1.234900
     26 O2           5.8620    10.9530    23.4810 o          1 GSV      -0.600800
     27 O1           5.2690     8.8470    24.7330 o          1 GSV      -0.600800
     28 C6           7.7640     9.2080    23.9390 c3         1 GSV      -0.220600
     29 C5           8.0660     7.8390    24.5420 c3         1 GSV       0.036900
     30 C4           9.5390     7.5900    24.5670 cc         1 GSV      -0.059400
     31 S2          10.5360     8.2720    25.8030 ss         1 GSV      -0.068800
     32 C3          10.2880     6.8910    23.6710 cd         1 GSV      -0.135000
     33 C2          11.6780     6.8860    23.9690 cd         1 GSV      -0.139000
     34 C1          11.9500     7.5980    25.0930 cc         1 GSV       0.026300
     35 CL          13.4800     7.8450    25.8140 cl         1 GSV      -0.054400
     36 H351         5.6050     1.8560    17.2430 h1         1 GSV       0.104033
     37 H352         4.9150     1.7020    15.6090 h1         1 GSV       0.104033
     38 H353         5.6990     0.2950    16.3760 h1         1 GSV       0.104033
     39 H31          9.1350    -0.1540    15.0340 ha         1 GSV       0.167000
     40 H34         10.9420    -1.1350    16.3780 ha         1 GSV       0.143000
     41 H33         11.3290    -0.3320    18.6950 ha         1 GSV       0.140000
     42 H30          9.9200     1.4570    19.6250 ha         1 GSV       0.142000
     43 H26          8.8540     4.4000    17.4820 ha         1 GSV       0.176000
     44 H24          6.8280     1.3660    19.7400 ha         1 GSV       0.143000
     45 H21          5.5850     3.1060    20.9510 ha         1 GSV       0.141000
     46 H141         3.8630     5.4930    19.7950 h1         1 GSV       0.057700
     47 H142         4.0400     4.9460    21.4690 h1         1 GSV       0.057700
     48 H12          5.2040     6.9640    23.0700 h1         1 GSV       0.100700
     49 H131         3.9610     7.8130    20.4360 hc         1 GSV       0.075700
     50 H132         3.1350     7.1560    21.8580 hc         1 GSV       0.075700
     51 H1           5.8530     9.3500    21.4360 hn         1 GSV       0.449800
     52 H6C1         8.2510     9.3450    22.9730 h1         1 GSV       0.108200
     53 H6C2         8.1000    10.0070    24.6030 h1         1 GSV       0.108200
     54 H5C1         7.6490     7.7790    25.5470 hc         1 GSV       0.063200
     55 H5C2         7.6090     7.0430    23.9580 hc         1 GSV       0.063200
     56 H3           9.8560     6.3930    22.8140 ha         1 GSV       0.168000
     57 H2          12.4290     6.3800    23.3800 ha         1 GSV       0.163000
@<TRIPOS>BOND
     1     1     2 1   
     2     1    36 1   
     3     1    37 1   
     4     1    38 1   
     5     2     3 2   
     6     2     4 2   
     7     2     5 1   
     8     5     6 ar  
     9     5    10 ar  
    10     6     7 ar  
    11     6    39 1   
    12     7     8 ar  
    13     7    40 1   
    14     8     9 ar  
    15     8    41 1   
    16     9    10 ar  
    17     9    42 1   
    18    10    11 1   
    19    11    12 ar  
    20    11    15 ar  
    21    12    13 ar  
    22    12    43 1   
    23    13    14 1   
    24    13    17 ar  
    25    15    16 ar  
    26    15    44 1   
    27    16    17 ar  
    28    16    45 1   
    29    17    18 1   
    30    18    19 1   
    31    18    21 1   
    32    19    20 2   
    33    19    23 1   
    34    21    22 1   
    35    21    46 1   
    36    21    47 1   
    37    22    23 1   
    38    22    49 1   
    39    22    50 1   
    40    23    24 1   
    41    23    48 1   
    42    24    25 1   
    43    24    51 1   
    44    25    26 2   
    45    25    27 2   
    46    25    28 1   
    47    28    29 1   
    48    28    52 1   
    49    28    53 1   
    50    29    30 1   
    51    29    54 1   
    52    29    55 1   
    53    30    31 1   
    54    30    32 2   
    55    31    34 1   
    56    32    33 1   
    57    32    56 1   
    58    33    34 2   
    59    33    57 1   
    60    34    35 1   
@<TRIPOS>SUBSTRUCTURE
     1 GSV         1 TEMP              0 ****  ****    0 ROOT
