@<TRIPOS>MOLECULE
GSV
   57    60     1     0     0
SMALL
No Charge or Current Charge


@<TRIPOS>ATOM
      1 C35          5.6550     1.2270    16.3320 c3         1 GSV      -0.336100
      2 S32          7.1050     1.8360    15.4690 sy         1 GSV       1.053500
      3 O37          7.0770     3.2990    15.5870 o          1 GSV      -0.522500
      4 O36          7.0940     1.1980    14.1460 o          1 GSV      -0.522500
      5 C29          8.5090     1.1700    16.4150 ca         1 GSV      -0.241500
      6 C31          9.3120     0.1480    15.8650 ca         1 GSV      -0.024000
      7 C34         10.3800    -0.3800    16.6060 ca         1 GSV      -0.122000
      8 C33         10.6470     0.1020    17.8960 ca         1 GSV      -0.057000
      9 C30          9.8430     1.1150    18.4460 ca         1 GSV      -0.117000
     10 C28          8.7600     1.6770    17.7280 cp         1 GSV       0.050000
     11 C27          7.9660     2.7370    18.4130 cp         1 GSV      -0.065000
     12 C26          8.2230     4.1070    18.1830 ca         1 GSV      -0.089000
     13 C22          7.5070     5.1030    18.8660 ca         1 GSV       0.188000
     14 F            7.7530     6.3970    18.5600 f          1 GSV      -0.154000
     15 C24          7.0130     2.3990    19.3990 ca         1 GSV      -0.107000
     16 C21          6.2910     3.3930    20.0800 ca         1 GSV      -0.110000
     17 C15          6.4820     4.7580    19.7830 ca         1 GSV      -0.074000
     18 N2           5.8500     5.7360    20.6360 n          1 GSV      -0.230400
     19 C50          6.5180     6.7550    21.3400 c          1 GSV       0.539000
     20 O3           7.7180     6.9980    21.2940 o          1 GSV      -0.528000
     21 C14          4.4180     5.6430    20.9780 c5         1 GSV       0.102000
     22 C13          4.1100     7.1080    21.3990 c5         1 GSV      -0.095400
     23 C12          5.4090     7.4940    22.1530 c5         1 GSV       0.156500
     24 N1           5.4600     9.0010    22.1530 n7         1 GSV      -0.895300
     25 S1           5.9650     9.7130    23.5810 s6         1 GSV       1.204100
     26 O2           5.8720    11.1520    23.3360 o          1 GSV      -0.530000
     27 O1           5.1740     9.1060    24.6530 o          1 GSV      -0.530000
     28 C6           7.6980     9.2490    23.7440 c3         1 GSV      -0.331400
     29 C5           7.9580     7.9630    24.5640 c3         1 GSV       0.036900
     30 C4           9.4280     7.6700    24.6750 cc         1 GSV      -0.204300
     31 S2          10.4270     8.4360    25.9140 ss         1 GSV       0.221000
     32 C3          10.1770     6.8200    23.8950 cd         1 GSV      -0.117000
     33 C2          11.5490     6.7670    24.2660 cd         1 GSV      -0.121000
     34 C1          11.8470     7.5750    25.3310 cc         1 GSV      -0.027000
     35 Cl          13.4140     7.7650    26.0540 cl         1 GSV      -0.146000
     36 H351         5.6130     1.6890    17.3210 h1         1 GSV       0.104033
     37 H352         4.7730     1.5050    15.7460 h1         1 GSV       0.104033
     38 H353         5.7380     0.1390    16.4130 h1         1 GSV       0.104033
     39 H31          9.1140    -0.2420    14.8670 ha         1 GSV       0.149000
     40 H34         11.0000    -1.1670    16.1810 ha         1 GSV       0.125000
     41 H33         11.4730    -0.3090    18.4710 ha         1 GSV       0.122000
     42 H30         10.0600     1.4750    19.4480 ha         1 GSV       0.124000
     43 H26          8.9800     4.3990    17.4610 ha         1 GSV       0.158000
     44 H24          6.8390     1.3520    19.6390 ha         1 GSV       0.125000
     45 H21          5.5830     3.0930    20.8500 ha         1 GSV       0.123000
     46 H141         3.8080     5.3200    20.1250 h1         1 GSV       0.057700
     47 H142         4.2610     4.9420    21.8090 h1         1 GSV       0.057700
     48 H12          5.3830     7.0520    23.1600 h1         1 GSV       0.100700
     49 H131         3.9570     7.7360    20.5130 hc         1 GSV       0.075700
     50 H132         3.2130     7.1920    22.0220 hc         1 GSV       0.075700
     51 H1           6.1750     9.3330    21.5050 hn         1 GSV       0.505000
     52 H6C1         8.1200     9.1770    22.7370 h1         1 GSV       0.108200
     53 H6C2         8.1660    10.0970    24.2560 h1         1 GSV       0.108200
     54 H5C1         7.5320     8.0740    25.5700 hc         1 GSV       0.063200
     55 H5C2         7.4520     7.1050    24.1090 hc         1 GSV       0.063200
     56 H3           9.7620     6.2460    23.0710 ha         1 GSV       0.150000
     57 H2          12.2860     6.1510    23.7600 ha         1 GSV       0.145000
@<TRIPOS>BOND
     1     1     2 1   
     2     1    36 1   
     3     1    37 1   
     4     1    38 1   
     5     2     3 2   
     6     2     4 2   
     7     2     5 1   
     8     5     6 ar  
     9     5    10 ar  
    10     6     7 ar  
    11     6    39 1   
    12     7     8 ar  
    13     7    40 1   
    14     8     9 ar  
    15     8    41 1   
    16     9    10 ar  
    17     9    42 1   
    18    10    11 1   
    19    11    12 ar  
    20    11    15 ar  
    21    12    13 ar  
    22    12    43 1   
    23    13    14 1   
    24    13    17 ar  
    25    15    16 ar  
    26    15    44 1   
    27    16    17 ar  
    28    16    45 1   
    29    17    18 1   
    30    18    19 1   
    31    18    21 1   
    32    19    20 2   
    33    19    23 1   
    34    21    22 1   
    35    21    46 1   
    36    21    47 1   
    37    22    23 1   
    38    22    49 1   
    39    22    50 1   
    40    23    24 1   
    41    23    48 1   
    42    24    25 1   
    43    24    51 1   
    44    25    26 2   
    45    25    27 2   
    46    25    28 1   
    47    28    29 1   
    48    28    52 1   
    49    28    53 1   
    50    29    30 1   
    51    29    54 1   
    52    29    55 1   
    53    30    31 1   
    54    30    32 2   
    55    31    34 1   
    56    32    33 1   
    57    32    56 1   
    58    33    34 2   
    59    33    57 1   
    60    34    35 1   
@<TRIPOS>SUBSTRUCTURE
     1 GSV         1 TEMP              0 ****  ****    0 ROOT
