@<TRIPOS>MOLECULE
GSY
   24    25     1     0     0
SMALL
abcg2


@<TRIPOS>ATOM
      1 O15          2.2470    20.4150    13.9710 oh         1 GSY      -0.664000
      2 C14          1.1630    21.2390    14.3930 c3         1 GSY       0.140600
      3 C13          0.8070    22.1800    13.2590 c3         1 GSY       0.076600
      4 N7           1.8730    23.1310    12.9620 na         1 GSY      -0.120500
      5 C5           2.1320    24.3140    13.6430 cc         1 GSY      -0.362600
      6 C6           1.4930    24.9480    14.7350 c          1 GSY       0.622600
      7 O11          0.5120    24.5850    15.3890 o          1 GSY      -0.567000
      8 N1           2.1440    26.1550    15.0400 ns         1 GSY      -0.447400
      9 C2           3.2380    26.6630    14.3850 cc         1 GSY       0.700800
     10 N2           3.6890    27.8730    14.8000 nv         1 GSY      -1.037200
     11 N3           3.8170    26.0550    13.3760 nd         1 GSY      -0.729700
     12 C4           3.2430    24.8790    13.0200 cd         1 GSY       0.564000
     13 N9           3.6710    24.0730    12.0020 nd         1 GSY      -0.684000
     14 C8           2.8300    23.0420    12.0020 cc         1 GSY       0.583800
     15 S10          2.9090    21.6850    10.8980 sh         1 GSY      -0.320100
     16 H15          2.5950    19.9470    14.7390 ho         1 GSY       0.448000
     17 H141         0.2790    20.6370    14.6270 h1         1 GSY       0.042200
     18 H142         1.4330    21.8160    15.2810 h1         1 GSY       0.042200
     19 H131         0.6010    21.6140    12.3510 h1         1 GSY       0.083700
     20 H132        -0.0840    22.7450    13.5230 h1         1 GSY       0.083700
     21 H1           1.7390    26.6800    15.8050 hn         1 GSY       0.324500
     22 H21N         4.5910    28.1530    14.4510 hn         1 GSY       0.494500
     23 H22N         3.4440    28.2080    15.7180 hn         1 GSY       0.494500
     24 H10          3.6740    22.3410    10.0100 hs         1 GSY       0.229800
@<TRIPOS>BOND
     1     1     2 1   
     2     1    16 1   
     3     2     3 1   
     4     2    17 1   
     5     2    18 1   
     6     3     4 1   
     7     3    19 1   
     8     3    20 1   
     9     4     5 1   
    10     4    14 1   
    11     5     6 1   
    12     5    12 2   
    13     6     7 2   
    14     6     8 1   
    15     8     9 1   
    16     8    21 1   
    17     9    10 1   
    18     9    11 2   
    19    10    22 1   
    20    10    23 1   
    21    11    12 1   
    22    12    13 1   
    23    13    14 2   
    24    14    15 1   
    25    15    24 1   
@<TRIPOS>SUBSTRUCTURE
     1 GSY         1 TEMP              0 ****  ****    0 ROOT
