@<TRIPOS>MOLECULE
GSY
   24    25     1     0     0
SMALL
No Charge or Current Charge


@<TRIPOS>ATOM
      1 O15          2.3220    20.4450    14.0970 oh         1 GSY      -0.664000
      2 C14          1.1820    21.2530    14.4320 c3         1 GSY       0.140600
      3 C13          0.8120    22.1940    13.2620 c3         1 GSY       0.076600
      4 N7           1.8660    23.1790    12.9400 na         1 GSY      -0.120500
      5 C5           2.1280    24.3610    13.6110 cc         1 GSY      -0.362600
      6 C6           1.5090    25.0030    14.7560 c          1 GSY       0.622600
      7 O11          0.5570    24.5720    15.3840 o          1 GSY      -0.567000
      8 N1           2.1180    26.1600    15.0600 ns         1 GSY      -0.447400
      9 C2           3.1640    26.6420    14.3710 cc         1 GSY       0.700800
     10 N2           3.6540    27.7930    14.7910 nv         1 GSY      -1.037200
     11 N3           3.7510    26.1090    13.3360 nd         1 GSY      -0.729700
     12 C4           3.1920    24.9080    12.9520 cd         1 GSY       0.564000
     13 N9           3.6050    24.1370    11.9070 nd         1 GSY      -0.684000
     14 C8           2.7960    23.0940    11.9160 cc         1 GSY       0.583800
     15 S10          2.8840    21.7910    10.7310 sh         1 GSY      -0.320100
     16 H15          2.5070    19.8680    14.8720 ho         1 GSY       0.448000
     17 H141         0.3170    20.6150    14.6550 h1         1 GSY       0.042200
     18 H142         1.3880    21.8560    15.3260 h1         1 GSY       0.042200
     19 H131         0.5860    21.5930    12.3740 h1         1 GSY       0.083700
     20 H132        -0.1030    22.7390    13.5240 h1         1 GSY       0.083700
     21 H1           1.7390    26.6860    15.8300 hn         1 GSY       0.324500
     22 H21N         4.5440    28.0300    14.3680 hn         1 GSY       0.494500
     23 H22N         3.5800    27.9980    15.7800 hn         1 GSY       0.494500
     24 H10          3.9430    22.3500    10.1050 hs         1 GSY       0.229800
@<TRIPOS>BOND
     1     1     2 1   
     2     1    16 1   
     3     2     3 1   
     4     2    17 1   
     5     2    18 1   
     6     3     4 1   
     7     3    19 1   
     8     3    20 1   
     9     4     5 1   
    10     4    14 1   
    11     5     6 1   
    12     5    12 2   
    13     6     7 2   
    14     6     8 1   
    15     8     9 1   
    16     8    21 1   
    17     9    10 1   
    18     9    11 2   
    19    10    22 1   
    20    10    23 1   
    21    11    12 1   
    22    12    13 1   
    23    13    14 2   
    24    14    15 1   
    25    15    24 1   
@<TRIPOS>SUBSTRUCTURE
     1 GSY         1 TEMP              0 ****  ****    0 ROOT
