@<TRIPOS>MOLECULE
GSZ
   55    57     1     0     0
SMALL
No Charge or Current Charge


@<TRIPOS>ATOM
      1 CAZ          0.0760    -0.9680    -4.8650 c3         1 GSZ      -0.088600
      2 CAN         -0.8870    -0.2260    -3.9070 c3         1 GSZ      -0.128700
      3 CBA         -2.3550    -0.6750    -4.1020 c3         1 GSZ      -0.088600
      4 CAL         -0.4490    -0.3830    -2.4360 c          1 GSZ       0.608100
      5 OAM         -0.4220    -1.4610    -1.8590 o          1 GSZ      -0.617100
      6 NAK         -0.0910     0.7800    -1.8020 ns         1 GSZ      -0.509900
      7 CAC          0.4130     0.8860    -0.4220 c6         1 GSZ       0.178000
      8 CAB          0.4630     2.3740     0.0630 c6         1 GSZ       0.170300
      9 OAG          0.5040     2.4150     1.5050 oh         1 GSZ      -0.652000
     10 CAA          1.6840     3.1470    -0.5650 c6         1 GSZ       0.123300
     11 OAH          1.5270     3.2360    -1.9980 oh         1 GSZ      -0.668000
     12 CAF          3.0730     2.4860    -0.2250 c6         1 GSZ       0.001300
     13 CAI          3.6570     2.9390     1.1490 c3         1 GSZ       0.149600
     14 OAJ          3.8560     4.3620     1.2190 oh         1 GSZ      -0.629000
     15 NAE          2.9830     1.0100    -0.3060 na         1 GSZ       0.023300
     16 CAQ          4.0560     0.1170    -0.3430 cc         1 GSZ      -0.180000
     17 CAD          1.8010     0.2950    -0.3410 cc         1 GSZ      -0.036600
     18 NAO          2.1630    -1.0230    -0.4160 na         1 GSZ      -0.060000
     19 CAP          3.5340    -1.1600    -0.4130 cd         1 GSZ      -0.090300
     20 CAR          4.2590    -2.4760    -0.5310 c3         1 GSZ      -0.024100
     21 CAS          4.2100    -3.0580    -1.9620 c3         1 GSZ      -0.033100
     22 CAT          4.8220    -2.1190    -2.9950 ca         1 GSZ      -0.103300
     23 CAU          4.0260    -1.1420    -3.6260 ca         1 GSZ      -0.112000
     24 CAV          4.5900    -0.2660    -4.5690 ca         1 GSZ      -0.105500
     25 CAW          5.9550    -0.3620    -4.8890 ca         1 GSZ      -0.099000
     26 CAX          6.7540    -1.3340    -4.2630 ca         1 GSZ      -0.105500
     27 CAY          6.1900    -2.2090    -3.3180 ca         1 GSZ      -0.112000
     28 HAZ1        -0.2370    -0.8390    -5.9080 hc         1 GSZ       0.052033
     29 HAZ2         1.0940    -0.5730    -4.7690 hc         1 GSZ       0.052033
     30 HAZ3         0.1000    -2.0420    -4.6450 hc         1 GSZ       0.052033
     31 HAN         -0.8370     0.8390    -4.1630 hc         1 GSZ       0.056700
     32 HBA1        -3.0230    -0.1120    -3.4390 hc         1 GSZ       0.052033
     33 HBA2        -2.4720    -1.7430    -3.8800 hc         1 GSZ       0.052033
     34 HBA3        -2.6800    -0.5030    -5.1360 hc         1 GSZ       0.052033
     35 HAK         -0.0630     1.6190    -2.3720 hn         1 GSZ       0.353500
     36 HAC         -0.2740     0.3330     0.2370 h1         1 GSZ       0.129700
     37 HAB         -0.4620     2.8640    -0.2820 h1         1 GSZ       0.091700
     38 HAG          0.2080     3.3120     1.7830 ho         1 GSZ       0.481000
     39 HAA          1.6740     4.1670    -0.1500 h1         1 GSZ       0.090700
     40 HAH          2.1290     3.9470    -2.3170 ho         1 GSZ       0.475000
     41 HAF          3.7980     2.8030    -0.9880 h1         1 GSZ       0.083700
     42 HAI1         4.6110     2.4170     1.3090 h1         1 GSZ       0.073700
     43 HAI2         2.9840     2.6080     1.9510 h1         1 GSZ       0.073700
     44 HAJ          4.6840     4.5710     0.7310 ho         1 GSZ       0.455000
     45 HAQ          5.0870     0.4500    -0.3400 h4         1 GSZ       0.197000
     46 HAO          1.5030    -1.7900    -0.5110 hn         1 GSZ       0.422000
     47 HAR1         3.8340    -3.2060     0.1680 hc         1 GSZ       0.083200
     48 HAR2         5.3090    -2.3490    -0.2380 hc         1 GSZ       0.083200
     49 HAS1         4.7330    -4.0220    -1.9700 hc         1 GSZ       0.068700
     50 HAS2         3.1680    -3.2810    -2.2250 hc         1 GSZ       0.068700
     51 HAU          2.9720    -1.0560    -3.3760 ha         1 GSZ       0.112000
     52 HAY          6.8180    -2.9550    -2.8350 ha         1 GSZ       0.112000
     53 HAV          3.9700     0.4880    -5.0490 ha         1 GSZ       0.121000
     54 HAW          6.3920     0.3160    -5.6190 ha         1 GSZ       0.125000
     55 HAX          7.8120    -1.4070    -4.5080 ha         1 GSZ       0.121000
@<TRIPOS>BOND
     1     1     2 1   
     2     1    28 1   
     3     1    29 1   
     4     1    30 1   
     5     2     3 1   
     6     2     4 1   
     7     2    31 1   
     8     3    32 1   
     9     3    33 1   
    10     3    34 1   
    11     4     5 2   
    12     4     6 1   
    13     6     7 1   
    14     6    35 1   
    15     7     8 1   
    16     7    17 1   
    17     7    36 1   
    18     8     9 1   
    19     8    10 1   
    20     8    37 1   
    21     9    38 1   
    22    10    11 1   
    23    10    12 1   
    24    10    39 1   
    25    11    40 1   
    26    12    13 1   
    27    12    15 1   
    28    12    41 1   
    29    13    14 1   
    30    13    42 1   
    31    13    43 1   
    32    14    44 1   
    33    15    16 1   
    34    15    17 2   
    35    16    19 2   
    36    16    45 1   
    37    17    18 1   
    38    18    19 1   
    39    18    46 1   
    40    19    20 1   
    41    20    21 1   
    42    20    47 1   
    43    20    48 1   
    44    21    22 1   
    45    21    49 1   
    46    21    50 1   
    47    22    23 ar  
    48    22    27 ar  
    49    23    24 ar  
    50    23    51 1   
    51    24    25 ar  
    52    24    53 1   
    53    25    26 ar  
    54    25    54 1   
    55    26    27 ar  
    56    26    55 1   
    57    27    52 1   
@<TRIPOS>SUBSTRUCTURE
     1 GSZ         1 TEMP              0 ****  ****    0 ROOT
