@<TRIPOS>MOLECULE
GSZ
   55    57     1     0     0
SMALL
abcg2


@<TRIPOS>ATOM
      1 CAZ         -0.2440    -1.5810    -4.9190 c3         1 GSZ      -0.088600
      2 CAN         -0.4520    -0.2860    -4.1470 c3         1 GSZ      -0.128700
      3 CBA         -1.9200     0.1500    -4.1900 c3         1 GSZ      -0.088600
      4 CAL         -0.0270    -0.4180    -2.6970 c          1 GSZ       0.608100
      5 OAM         -0.0860    -1.4690    -2.0720 o          1 GSZ      -0.617100
      6 NAK          0.3800     0.7320    -2.1220 ns         1 GSZ      -0.509900
      7 CAC          0.6940     0.8170    -0.7150 c6         1 GSZ       0.178000
      8 CAB          0.5840     2.2500    -0.1850 c6         1 GSZ       0.170300
      9 OAG          0.4350     2.1340     1.2030 oh         1 GSZ      -0.652000
     10 CAA          1.8170     3.0840    -0.5560 c6         1 GSZ       0.123300
     11 OAH          1.8290     3.1410    -1.9630 oh         1 GSZ      -0.668000
     12 CAF          3.1300     2.4960    -0.0240 c6         1 GSZ       0.001300
     13 CAI          3.4510     2.8030     1.4490 c3         1 GSZ       0.149600
     14 OAJ          3.4460     4.1800     1.7010 oh         1 GSZ      -0.629000
     15 NAE          3.1410     1.0490    -0.2220 na         1 GSZ       0.023300
     16 CAQ          4.2470     0.2340    -0.1300 cc         1 GSZ      -0.180000
     17 CAD          2.0720     0.3030    -0.4530 cc         1 GSZ      -0.036600
     18 NAO          2.4690    -0.9620    -0.4920 na         1 GSZ      -0.060000
     19 CAP          3.8270    -1.0440    -0.3010 cd         1 GSZ      -0.090300
     20 CAR          4.5900    -2.3140    -0.3800 c3         1 GSZ      -0.024100
     21 CAS          4.3940    -3.0320    -1.7260 c3         1 GSZ      -0.033100
     22 CAT          4.6180    -2.1160    -2.8970 ca         1 GSZ      -0.103300
     23 CAU          3.5390    -1.6150    -3.6190 ca         1 GSZ      -0.112000
     24 CAV          3.7300    -0.7190    -4.6620 ca         1 GSZ      -0.105500
     25 CAW          5.0140    -0.3150    -5.0020 ca         1 GSZ      -0.099000
     26 CAX          6.1000    -0.8140    -4.2930 ca         1 GSZ      -0.105500
     27 CAY          5.9020    -1.7060    -3.2490 ca         1 GSZ      -0.112000
     28 HAZ1        -0.5510    -1.4440    -5.9550 hc         1 GSZ       0.052033
     29 HAZ2         0.8000    -1.8960    -4.9260 hc         1 GSZ       0.052033
     30 HAZ3        -0.8350    -2.3940    -4.4990 hc         1 GSZ       0.052033
     31 HAN          0.1500     0.5030    -4.6100 hc         1 GSZ       0.056700
     32 HBA1        -2.0820     1.0940    -3.6680 hc         1 GSZ       0.052033
     33 HBA2        -2.5640    -0.6050    -3.7370 hc         1 GSZ       0.052033
     34 HBA3        -2.2370     0.2830    -5.2240 hc         1 GSZ       0.052033
     35 HAK          0.5520     1.5450    -2.6930 hn         1 GSZ       0.353500
     36 HAC         -0.0180     0.1990    -0.1640 h1         1 GSZ       0.129700
     37 HAB         -0.2950     2.7140    -0.6490 h1         1 GSZ       0.091700
     38 HAG          0.2310     3.0000     1.5720 ho         1 GSZ       0.481000
     39 HAA          1.7040     4.0850    -0.1250 h1         1 GSZ       0.090700
     40 HAH          2.4630     3.8040    -2.2550 ho         1 GSZ       0.475000
     41 HAF          3.9450     2.9010    -0.6320 h1         1 GSZ       0.083700
     42 HAI1         4.4190     2.3500     1.6910 h1         1 GSZ       0.073700
     43 HAI2         2.7090     2.3440     2.0980 h1         1 GSZ       0.073700
     44 HAJ          4.2200     4.5750     1.2860 ho         1 GSZ       0.455000
     45 HAQ          5.2370     0.6220     0.0350 h4         1 GSZ       0.197000
     46 HAO          1.8350    -1.7340    -0.6560 hn         1 GSZ       0.422000
     47 HAR1         4.2980    -2.9840     0.4320 hc         1 GSZ       0.083200
     48 HAR2         5.6430    -2.0790    -0.2300 hc         1 GSZ       0.083200
     49 HAS1         5.0850    -3.8760    -1.7570 hc         1 GSZ       0.068700
     50 HAS2         3.3890    -3.4570    -1.7740 hc         1 GSZ       0.068700
     51 HAU          2.5360    -1.9340    -3.3590 ha         1 GSZ       0.112000
     52 HAY          6.7570    -2.0890    -2.7020 ha         1 GSZ       0.112000
     53 HAV          2.8780    -0.3390    -5.2130 ha         1 GSZ       0.121000
     54 HAW          5.1680     0.3800    -5.8180 ha         1 GSZ       0.125000
     55 HAX          7.1040    -0.5100    -4.5570 ha         1 GSZ       0.121000
@<TRIPOS>BOND
     1     1     2 1   
     2     1    28 1   
     3     1    29 1   
     4     1    30 1   
     5     2     3 1   
     6     2     4 1   
     7     2    31 1   
     8     3    32 1   
     9     3    33 1   
    10     3    34 1   
    11     4     5 2   
    12     4     6 1   
    13     6     7 1   
    14     6    35 1   
    15     7     8 1   
    16     7    17 1   
    17     7    36 1   
    18     8     9 1   
    19     8    10 1   
    20     8    37 1   
    21     9    38 1   
    22    10    11 1   
    23    10    12 1   
    24    10    39 1   
    25    11    40 1   
    26    12    13 1   
    27    12    15 1   
    28    12    41 1   
    29    13    14 1   
    30    13    42 1   
    31    13    43 1   
    32    14    44 1   
    33    15    16 1   
    34    15    17 2   
    35    16    19 2   
    36    16    45 1   
    37    17    18 1   
    38    18    19 1   
    39    18    46 1   
    40    19    20 1   
    41    20    21 1   
    42    20    47 1   
    43    20    48 1   
    44    21    22 1   
    45    21    49 1   
    46    21    50 1   
    47    22    23 ar  
    48    22    27 ar  
    49    23    24 ar  
    50    23    51 1   
    51    24    25 ar  
    52    24    53 1   
    53    25    26 ar  
    54    25    54 1   
    55    26    27 ar  
    56    26    55 1   
    57    27    52 1   
@<TRIPOS>SUBSTRUCTURE
     1 GSZ         1 TEMP              0 ****  ****    0 ROOT
