@<TRIPOS>MOLECULE
GT0
   26    26     1     0     0
SMALL
No Charge or Current Charge


@<TRIPOS>ATOM
      1 C8           1.2900     1.8340     0.0560 ca         1 GT0       0.327900
      2 N1           2.3610     1.0300     0.2350 nb         1 GT0      -0.648000
      3 C7           2.1360    -0.2990     0.3410 ca         1 GT0       0.327300
      4 C4           0.8370    -0.8750     0.2670 ca         1 GT0       0.116100
      5 C6          -0.2880    -0.0330     0.0730 ca         1 GT0      -0.153300
      6 C2          -0.0370     1.3640    -0.0240 ca         1 GT0      -0.099300
      7 C1          -1.7350    -0.5640     0.0120 c3         1 GT0       0.200900
      8 O3          -1.7730    -1.9470    -0.3920 os         1 GT0      -0.476000
      9 C3          -3.0980    -2.4990    -0.5000 c3         1 GT0       0.145900
     10 C5          -1.1510     2.3920    -0.1960 c3         1 GT0       0.213900
     11 O2          -1.5080     2.5110    -1.5760 oh         1 GT0      -0.654000
     12 C9           3.3760    -1.1600     0.5440 c3         1 GT0      -0.133400
     13 O1           0.6660    -2.2290     0.3780 oh         1 GT0      -0.542100
     14 H1           1.5030     2.9010    -0.0190 h4         1 GT0       0.040100
     15 H2          -2.1960    -0.4440     1.0010 h1         1 GT0       0.037700
     16 H3          -2.3150     0.0370    -0.7010 h1         1 GT0       0.037700
     17 H4          -3.0490    -3.5510    -0.8090 h1         1 GT0       0.037367
     18 H5          -3.6210    -2.4500     0.4640 h1         1 GT0       0.037367
     19 H6          -3.6900    -1.9520    -1.2450 h1         1 GT0       0.037367
     20 H7          -2.0230     2.1010     0.4040 h1         1 GT0       0.025200
     21 H8          -0.8100     3.3630     0.1890 h1         1 GT0       0.025200
     22 H9          -2.2110     3.1960    -1.6290 ho         1 GT0       0.448000
     23 H10          3.4850    -1.8830    -0.2720 hc         1 GT0       0.052033
     24 H11          4.2930    -0.5600     0.5810 hc         1 GT0       0.052033
     25 H12          3.3080    -1.7210     1.4830 hc         1 GT0       0.052033
     26 H13         -0.2820    -2.3930     0.1280 ho         1 GT0       0.493000
@<TRIPOS>BOND
     1     1     2 ar  
     2     1     6 ar  
     3     1    14 1   
     4     2     3 ar  
     5     3     4 ar  
     6     3    12 1   
     7     4     5 ar  
     8     4    13 1   
     9     5     6 ar  
    10     5     7 1   
    11     6    10 1   
    12     7     8 1   
    13     7    15 1   
    14     7    16 1   
    15     8     9 1   
    16     9    17 1   
    17     9    18 1   
    18     9    19 1   
    19    10    11 1   
    20    10    20 1   
    21    10    21 1   
    22    11    22 1   
    23    12    23 1   
    24    12    24 1   
    25    12    25 1   
    26    13    26 1   
@<TRIPOS>SUBSTRUCTURE
     1 GT0         1 TEMP              0 ****  ****    0 ROOT
