@<TRIPOS>MOLECULE
GT0
   26    26     1     0     0
SMALL
abcg2


@<TRIPOS>ATOM
      1 C8           1.1890     1.8010     0.0110 ca         1 GT0       0.327900
      2 N1           2.2410     1.0020     0.1720 nb         1 GT0      -0.648000
      3 C7           2.0720    -0.3090     0.1850 ca         1 GT0       0.327300
      4 C4           0.7990    -0.8770     0.0280 ca         1 GT0       0.116100
      5 C6          -0.3090    -0.0490    -0.1450 ca         1 GT0      -0.153300
      6 C2          -0.1050     1.3350    -0.1530 ca         1 GT0      -0.099300
      7 C1          -1.6700    -0.6440    -0.3890 c3         1 GT0       0.200900
      8 O3          -1.8370    -1.7950     0.4130 os         1 GT0      -0.476000
      9 C3          -3.0560    -2.4650     0.1610 c3         1 GT0       0.145900
     10 C5          -1.2650     2.2760    -0.3450 c3         1 GT0       0.213900
     11 O2          -0.8170     3.6050    -0.3170 oh         1 GT0      -0.654000
     12 C9           3.2740    -1.1840     0.3660 c3         1 GT0      -0.133400
     13 O1           0.7160    -2.2190     0.0370 oh         1 GT0      -0.542100
     14 H1           1.3970     2.8630     0.0150 h4         1 GT0       0.040100
     15 H2          -2.4640     0.0770    -0.1660 h1         1 GT0       0.037700
     16 H3          -1.7700    -0.9000    -1.4540 h1         1 GT0       0.037700
     17 H4          -3.1030    -3.3260     0.8240 h1         1 GT0       0.037367
     18 H5          -3.9120    -1.8140     0.3650 h1         1 GT0       0.037367
     19 H6          -3.1210    -2.8080    -0.8760 h1         1 GT0       0.037367
     20 H7          -1.7620     2.0420    -1.2960 h1         1 GT0       0.025200
     21 H8          -2.0080     2.0890     0.4430 h1         1 GT0       0.025200
     22 H9          -1.5710     4.1750    -0.4910 ho         1 GT0       0.448000
     23 H10          3.4060    -1.8710    -0.4720 hc         1 GT0       0.052033
     24 H11          4.1700    -0.5720     0.4480 hc         1 GT0       0.052033
     25 H12          3.1950    -1.7960     1.2660 hc         1 GT0       0.052033
     26 H13         -0.2200    -2.4670     0.1620 ho         1 GT0       0.493000
@<TRIPOS>BOND
     1     1     2 ar  
     2     1     6 ar  
     3     1    14 1   
     4     2     3 ar  
     5     3     4 ar  
     6     3    12 1   
     7     4     5 ar  
     8     4    13 1   
     9     5     6 ar  
    10     5     7 1   
    11     6    10 1   
    12     7     8 1   
    13     7    15 1   
    14     7    16 1   
    15     8     9 1   
    16     9    17 1   
    17     9    18 1   
    18     9    19 1   
    19    10    11 1   
    20    10    20 1   
    21    10    21 1   
    22    11    22 1   
    23    12    23 1   
    24    12    24 1   
    25    12    25 1   
    26    13    26 1   
@<TRIPOS>SUBSTRUCTURE
     1 GT0         1 TEMP              0 ****  ****    0 ROOT
