@<TRIPOS>MOLECULE
GT2
   31    32     1     0     0
SMALL
No Charge or Current Charge


@<TRIPOS>ATOM
      1 N1          -0.0870     0.5510     0.1740 ns         1 GT2      -0.161000
      2 C2           0.7310    -0.5360    -0.1060 c          1 GT2       0.627700
      3 C3           4.9930     0.3100     0.2020 ca         1 GT2       0.142000
      4 C5           3.1640    -1.2980     0.2550 ca         1 GT2       0.169000
      5 C6           2.2210    -0.2600     0.0130 ca         1 GT2      -0.151600
      6 C8           4.0820     1.3450    -0.0350 ca         1 GT2      -0.110000
      7 C16         -4.2940     1.1810     0.2060 ca         1 GT2      -0.087000
      8 C17         -3.8120    -0.1460     0.1100 ca         1 GT2      -0.141600
      9 C18         -2.4120    -0.3610     0.1010 ca         1 GT2      -0.042000
     10 C19         -1.5030     0.7210     0.1760 ca         1 GT2      -0.038000
     11 C20         -2.0140     2.0310     0.2790 ca         1 GT2       0.109000
     12 C21         -3.3970     2.2570     0.2910 ca         1 GT2      -0.099000
     13 C4           4.5350    -1.0040     0.3480 ca         1 GT2      -0.107000
     14 C7           2.7080     1.0670    -0.1280 ca         1 GT2      -0.074000
     15 N26         -6.1100    -1.0680    -0.0270 ns         1 GT2      -0.377400
     16 O14          0.2880    -1.6130    -0.4840 o          1 GT2      -0.546100
     17 O27         -7.0680    -2.1060    -0.3540 oh         1 GT2      -0.426100
     18 O28         -4.3250    -2.4920     0.0200 o          1 GT2      -0.552100
     19 Cl1          2.7010    -2.9820     0.5170 cl         1 GT2      -0.157000
     20 Cl2          6.7130     0.6610     0.3200 cl         1 GT2      -0.180000
     21 Cl3         -0.9250     3.4150     0.3880 cl         1 GT2      -0.193000
     22 H1           0.4180     1.3860     0.4430 hn         1 GT2       0.169000
     23 H2           4.4400     2.3650    -0.1510 ha         1 GT2       0.138000
     24 H3          -5.3590     1.3990     0.2260 ha         1 GT2       0.123000
     25 H4          -2.0450    -1.3810     0.0450 ha         1 GT2       0.159000
     26 H5          -3.7760     3.2730     0.3690 ha         1 GT2       0.135000
     27 H6           5.2460    -1.8020     0.5410 ha         1 GT2       0.150000
     28 H7           2.0350     1.8970    -0.3350 ha         1 GT2       0.128000
     29 H8          -6.4190    -0.1110    -0.1800 hn         1 GT2       0.335500
     30 H9          -7.7490    -2.0260     0.3550 ho         1 GT2       0.448000
     31 C25         -4.7450    -1.3410     0.0270 c          1 GT2       0.612700
@<TRIPOS>BOND
     1     1     2 1   
     2     1    10 1   
     3     1    22 1   
     4     2     5 1   
     5     2    16 2   
     6     3     6 ar  
     7     3    13 ar  
     8     3    20 1   
     9     4     5 ar  
    10     4    13 ar  
    11     4    19 1   
    12     5    14 ar  
    13     6    14 ar  
    14     6    23 1   
    15     7     8 ar  
    16     7    12 ar  
    17     7    24 1   
    18     8     9 ar  
    19     8    31 1   
    20     9    10 ar  
    21     9    25 1   
    22    10    11 ar  
    23    11    12 ar  
    24    11    21 1   
    25    12    26 1   
    26    13    27 1   
    27    14    28 1   
    28    15    17 1   
    29    15    29 1   
    30    15    31 1   
    31    17    30 1   
    32    18    31 2   
@<TRIPOS>SUBSTRUCTURE
     1 GT2         1 TEMP              0 ****  ****    0 ROOT
