@<TRIPOS>MOLECULE
GT2
   31    32     1     0     0
SMALL
bcc


@<TRIPOS>ATOM
      1 N1          -0.1190     0.5830     0.5380 ns         1 GT2      -0.487100
      2 C2           0.6070    -0.2400    -0.2590 c          1 GT2       0.694700
      3 C3           4.8390     0.1610     0.1470 ca         1 GT2       0.050400
      4 C5           2.9030    -1.2340     0.1050 ca         1 GT2       0.077400
      5 C6           2.0840    -0.1200    -0.0600 ca         1 GT2      -0.151600
      6 C8           4.0550     1.2900    -0.0210 ca         1 GT2      -0.128000
      7 C16         -4.2490     1.1820     0.1680 ca         1 GT2      -0.105000
      8 C17         -3.7480    -0.1100     0.3090 ca         1 GT2      -0.141600
      9 C18         -2.3800    -0.3040     0.4520 ca         1 GT2      -0.060000
     10 C19         -1.5030     0.7700     0.4110 ca         1 GT2       0.054600
     11 C20         -2.0230     2.0550     0.2550 ca         1 GT2       0.017400
     12 C21         -3.3870     2.2650     0.1510 ca         1 GT2      -0.117000
     13 C4           4.2770    -1.1050     0.2200 ca         1 GT2      -0.125000
     14 C7           2.6830     1.1360    -0.1180 ca         1 GT2      -0.092000
     15 N26         -5.7740    -1.1930    -0.3300 ns         1 GT2      -0.444400
     16 O14          0.1220    -0.9880    -1.0810 o          1 GT2      -0.546100
     17 O27         -6.5900    -2.2760    -0.4500 oh         1 GT2      -0.387100
     18 O28         -4.3350    -2.3000     1.0240 o          1 GT2      -0.552100
     19 CL1          2.2300    -2.8180     0.2300 cl         1 GT2      -0.065400
     20 CL2          6.5520     0.3230     0.2760 cl         1 GT2      -0.088400
     21 CL3         -0.9500     3.4050     0.1960 cl         1 GT2      -0.101400
     22 H1           0.3710     1.1650     1.2020 hn         1 GT2       0.335500
     23 H2           4.5000     2.2730    -0.0810 ha         1 GT2       0.156000
     24 H3          -5.3130     1.3650     0.0990 ha         1 GT2       0.141000
     25 H4          -1.9920    -1.3010     0.6060 ha         1 GT2       0.177000
     26 H5          -3.7750     3.2690     0.0510 ha         1 GT2       0.153000
     27 H6           4.8990    -1.9770     0.3640 ha         1 GT2       0.168000
     28 H7           2.0680     2.0150    -0.2640 ha         1 GT2       0.146000
     29 H8          -5.8700    -0.5180    -1.0750 hn         1 GT2       0.335500
     30 H9          -7.3200    -2.1270     0.1660 ho         1 GT2       0.409000
     31 C25         -4.6300    -1.3140     0.3740 c          1 GT2       0.679700
@<TRIPOS>BOND
     1     1     2 1   
     2     1    10 1   
     3     1    22 1   
     4     2     5 1   
     5     2    16 2   
     6     3     6 ar  
     7     3    13 ar  
     8     3    20 1   
     9     4     5 ar  
    10     4    13 ar  
    11     4    19 1   
    12     5    14 ar  
    13     6    14 ar  
    14     6    23 1   
    15     7     8 ar  
    16     7    12 ar  
    17     7    24 1   
    18     8     9 ar  
    19     8    31 1   
    20     9    10 ar  
    21     9    25 1   
    22    10    11 ar  
    23    11    12 ar  
    24    11    21 1   
    25    12    26 1   
    26    13    27 1   
    27    14    28 1   
    28    15    17 1   
    29    15    29 1   
    30    15    31 1   
    31    17    30 1   
    32    18    31 2   
@<TRIPOS>SUBSTRUCTURE
     1 GT2         1 TEMP              0 ****  ****    0 ROOT
