@<TRIPOS>MOLECULE
GT3
   37    38     1     0     0
SMALL
abcg2


@<TRIPOS>ATOM
      1 O6          -5.9610   -14.1810    -1.2030 o          1 GT3      -0.517000
      2 C6          -6.2020   -13.0580    -1.6150 c          1 GT3       0.523500
      3 N1          -6.6210   -12.8600    -2.9370 ns         1 GT3      -0.458400
      4 C2          -6.9180   -11.6610    -3.5200 cc         1 GT3       0.739800
      5 N2          -7.2670   -11.6840    -4.8130 nv         1 GT3      -1.052200
      6 N3          -6.8450   -10.5200    -2.8810 nd         1 GT3      -0.711100
      7 C4          -6.4470   -10.6580    -1.6100 cd         1 GT3       0.150400
      8 C5          -6.1240   -11.8150    -0.9240 cc         1 GT3       0.094500
      9 N7          -5.7730   -11.5280     0.3700 nc         1 GT3      -0.590000
     10 C8          -5.8820   -10.2380     0.4590 cd         1 GT3       0.409400
     11 N9          -6.2700    -9.6520    -0.7170 na         1 GT3      -0.163500
     12 C2B         -6.5860    -8.2720    -0.9370 c3         1 GT3      -0.005400
     13 C2A         -8.0920    -8.0380    -0.8720 c          1 GT3       0.586100
     14 O2A         -8.8430    -8.8640    -0.3840 o          1 GT3      -0.577100
     15 N4          -8.4730    -6.8530    -1.3660 ns         1 GT3      -0.504900
     16 C7          -9.8360    -6.3670    -1.3710 c3         1 GT3       0.118700
     17 C3          -9.8960    -4.9360    -0.8390 c3         1 GT3       0.159300
     18 C3A         -9.4370    -4.8440     0.6080 c3         1 GT3      -0.129100
     19 O3          -9.1000    -4.1400    -1.6960 oh         1 GT3      -0.676000
     20 C1         -10.4110    -6.5240    -2.7770 c3         1 GT3       0.149600
     21 O1         -11.7530    -6.0990    -2.7680 oh         1 GT3      -0.662000
     22 H1          -6.7010   -13.6980    -3.4990 hn         1 GT3       0.321500
     23 H2          -7.6070   -10.8320    -5.2250 hn         1 GT3       0.502500
     24 H3          -7.5140   -12.5420    -5.2740 hn         1 GT3       0.502500
     25 H4          -5.6830    -9.6450     1.3390 h5         1 GT3       0.058100
     26 H5          -6.1810    -7.9500    -1.8980 h1         1 GT3       0.079200
     27 H6          -6.0960    -7.6730    -0.1680 h1         1 GT3       0.079200
     28 H7          -7.7730    -6.2590    -1.7860 hn         1 GT3       0.324500
     29 H8         -10.4150    -6.9950    -0.6900 h1         1 GT3       0.095700
     30 H9         -10.9450    -4.6190    -0.8820 h1         1 GT3       0.059700
     31 H10         -9.5320    -3.8190     0.9730 hc         1 GT3       0.044367
     32 H11        -10.0530    -5.4740     1.2510 hc         1 GT3       0.044367
     33 H12         -8.3960    -5.1480     0.7280 hc         1 GT3       0.044367
     34 H13         -9.0900    -3.2410    -1.3550 ho         1 GT3       0.448000
     35 H14        -10.3250    -7.5810    -3.0610 h1         1 GT3       0.031200
     36 H15         -9.8050    -5.9520    -3.4890 h1         1 GT3       0.031200
     37 H16        -12.0760    -6.1080    -3.6730 ho         1 GT3       0.448000
@<TRIPOS>BOND
     1     1     2 2   
     2     2     3 1   
     3     2     8 1   
     4     3     4 1   
     5     3    22 1   
     6     4     5 1   
     7     4     6 2   
     8     5    23 1   
     9     5    24 1   
    10     6     7 1   
    11     7     8 2   
    12     7    11 1   
    13     8     9 1   
    14     9    10 2   
    15    10    11 1   
    16    10    25 1   
    17    11    12 1   
    18    12    13 1   
    19    12    26 1   
    20    12    27 1   
    21    13    14 2   
    22    13    15 1   
    23    15    16 1   
    24    15    28 1   
    25    16    17 1   
    26    16    20 1   
    27    16    29 1   
    28    17    18 1   
    29    17    19 1   
    30    17    30 1   
    31    18    31 1   
    32    18    32 1   
    33    18    33 1   
    34    19    34 1   
    35    20    21 1   
    36    20    35 1   
    37    20    36 1   
    38    21    37 1   
@<TRIPOS>SUBSTRUCTURE
     1 GT3         1 TEMP              0 ****  ****    0 ROOT
