@<TRIPOS>MOLECULE
GT3
   37    38     1     0     0
SMALL
No Charge or Current Charge


@<TRIPOS>ATOM
      1 O6          -5.9380   -14.4270    -1.5300 o          1 GT3      -0.517000
      2 C6          -6.1040   -13.2870    -1.9420 c          1 GT3       0.523500
      3 N1          -6.1340   -12.9970    -3.2700 ns         1 GT3      -0.458400
      4 C2          -6.3110   -11.7500    -3.7610 cc         1 GT3       0.739800
      5 N2          -6.3200   -11.6410    -5.0740 nv         1 GT3      -1.052200
      6 N3          -6.4770   -10.6390    -3.0820 nd         1 GT3      -0.711100
      7 C4          -6.4600   -10.8500    -1.7020 cd         1 GT3       0.150400
      8 C5          -6.2900   -12.0740    -1.1110 cc         1 GT3       0.094500
      9 N7          -6.3240   -11.9640     0.2610 nc         1 GT3      -0.590000
     10 C8          -6.5190   -10.6660     0.5040 cd         1 GT3       0.409400
     11 N9          -6.6010    -9.9390    -0.6820 na         1 GT3      -0.163500
     12 C2B         -6.8280    -8.4850    -0.8140 c3         1 GT3      -0.005400
     13 C2A         -8.2920    -8.0600    -0.6230 c          1 GT3       0.586100
     14 O2A         -9.1330    -8.7650    -0.0810 o          1 GT3      -0.577100
     15 N4          -8.5960    -6.8050    -1.1020 ns         1 GT3      -0.504900
     16 C7          -9.9270    -6.1760    -1.0430 c3         1 GT3       0.118700
     17 C3          -9.7990    -4.6200    -1.0140 c3         1 GT3       0.159300
     18 C3A         -9.1740    -4.1010     0.2980 c3         1 GT3      -0.129100
     19 O3          -8.9840    -4.1620    -2.1070 oh         1 GT3      -0.676000
     20 C1         -10.8300    -6.6910    -2.1990 c3         1 GT3       0.149600
     21 O1         -12.1840    -6.2350    -2.0430 oh         1 GT3      -0.662000
     22 H1          -5.9910   -13.7620    -3.9080 hn         1 GT3       0.321500
     23 H2          -6.6360   -10.7310    -5.3870 hn         1 GT3       0.502500
     24 H3          -6.6930   -12.4240    -5.5950 hn         1 GT3       0.502500
     25 H4          -6.6060   -10.1950     1.4760 h5         1 GT3       0.058100
     26 H5          -6.5080    -8.1620    -1.8120 h1         1 GT3       0.079200
     27 H6          -6.2210    -7.9500    -0.0740 h1         1 GT3       0.079200
     28 H7          -7.8490    -6.2750    -1.5380 hn         1 GT3       0.324500
     29 H8         -10.4050    -6.4830    -0.1030 h1         1 GT3       0.095700
     30 H9         -10.8090    -4.1900    -1.0900 h1         1 GT3       0.059700
     31 H10         -9.1450    -3.0050     0.3070 hc         1 GT3       0.044367
     32 H11         -9.7660    -4.4290     1.1610 hc         1 GT3       0.044367
     33 H12         -8.1500    -4.4730     0.4250 hc         1 GT3       0.044367
     34 H13         -9.0020    -3.1800    -2.0880 ho         1 GT3       0.448000
     35 H14        -10.8080    -7.7890    -2.2030 h1         1 GT3       0.031200
     36 H15        -10.4190    -6.3510    -3.1590 h1         1 GT3       0.031200
     37 H16        -12.6990    -6.5970    -2.7990 ho         1 GT3       0.448000
@<TRIPOS>BOND
     1     1     2 2   
     2     2     3 1   
     3     2     8 1   
     4     3     4 1   
     5     3    22 1   
     6     4     5 1   
     7     4     6 2   
     8     5    23 1   
     9     5    24 1   
    10     6     7 1   
    11     7     8 2   
    12     7    11 1   
    13     8     9 1   
    14     9    10 2   
    15    10    11 1   
    16    10    25 1   
    17    11    12 1   
    18    12    13 1   
    19    12    26 1   
    20    12    27 1   
    21    13    14 2   
    22    13    15 1   
    23    15    16 1   
    24    15    28 1   
    25    16    17 1   
    26    16    20 1   
    27    16    29 1   
    28    17    18 1   
    29    17    19 1   
    30    17    30 1   
    31    18    31 1   
    32    18    32 1   
    33    18    33 1   
    34    19    34 1   
    35    20    21 1   
    36    20    35 1   
    37    20    36 1   
    38    21    37 1   
@<TRIPOS>SUBSTRUCTURE
     1 GT3         1 TEMP              0 ****  ****    0 ROOT
