@<TRIPOS>MOLECULE
GT4
   24    24     1     0     0
SMALL
abcg2


@<TRIPOS>ATOM
      1 N1          -0.6590    -0.5800    -0.3150 ns         1 GT4      -0.157000
      2 C4           0.7100    -0.2730    -0.2410 ca         1 GT4      -0.063000
      3 C5           1.6000    -1.3030     0.0510 ca         1 GT4      -0.097000
      4 C6           2.9650    -1.0760     0.1040 ca         1 GT4      -0.153500
      5 C7           3.4710     0.2000    -0.1210 ca         1 GT4       0.121100
      6 C8           2.5860     1.2330    -0.4150 ca         1 GT4      -0.153500
      7 C1          -5.3280    -0.1600     0.1450 c3         1 GT4       0.140900
      8 O1          -4.0480     0.4150     0.2450 os         1 GT4      -0.414000
      9 C2          -3.0410    -0.4780    -0.1020 c3         1 GT4       0.073600
     10 C3          -1.6980     0.2240     0.0170 c          1 GT4       0.603100
     11 O2          -1.5900     1.3810     0.3690 o          1 GT4      -0.546100
     12 C9           1.2220     1.0020    -0.4820 ca         1 GT4      -0.097000
     13 O3           4.7890     0.4860    -0.0740 oh         1 GT4      -0.532100
     14 H1          -0.8770    -1.5450    -0.5150 hn         1 GT4       0.146000
     15 H2           1.2240    -2.3010     0.2420 ha         1 GT4       0.125500
     16 H3           3.6320    -1.9010     0.3300 ha         1 GT4       0.122500
     17 H4           2.9680     2.2290    -0.6050 ha         1 GT4       0.122500
     18 H5          -5.4480    -1.0190     0.8160 h1         1 GT4       0.032700
     19 H6          -6.0560     0.6000     0.4250 h1         1 GT4       0.032700
     20 H7          -5.5490    -0.4950    -0.8750 h1         1 GT4       0.032700
     21 H8          -3.0370    -1.3670     0.5470 h1         1 GT4       0.035200
     22 H9          -3.1570    -0.8490    -1.1330 h1         1 GT4       0.035200
     23 H10          0.5680     1.8230    -0.7320 ha         1 GT4       0.125500
     24 H11          5.2940    -0.3020     0.1520 ho         1 GT4       0.463000
@<TRIPOS>BOND
     1     1     2 1   
     2     1    10 1   
     3     1    14 1   
     4     2     3 ar  
     5     2    12 ar  
     6     3     4 ar  
     7     3    15 1   
     8     4     5 ar  
     9     4    16 1   
    10     5     6 ar  
    11     5    13 1   
    12     6    12 ar  
    13     6    17 1   
    14     7     8 1   
    15     7    18 1   
    16     7    19 1   
    17     7    20 1   
    18     8     9 1   
    19     9    10 1   
    20     9    21 1   
    21     9    22 1   
    22    10    11 2   
    23    12    23 1   
    24    13    24 1   
@<TRIPOS>SUBSTRUCTURE
     1 GT4         1 TEMP              0 ****  ****    0 ROOT
