@<TRIPOS>MOLECULE
GT4
   24    24     1     0     0
SMALL
No Charge or Current Charge


@<TRIPOS>ATOM
      1 N1          -0.6310    -0.4740    -0.0680 ns         1 GT4      -0.157000
      2 C4           0.7680    -0.2050    -0.1090 ca         1 GT4      -0.063000
      3 C5           1.6430    -1.3090    -0.0600 ca         1 GT4      -0.097000
      4 C6           3.0360    -1.1230    -0.0960 ca         1 GT4      -0.153500
      5 C7           3.5680     0.1730    -0.1820 ca         1 GT4       0.121100
      6 C8           2.7080     1.2780    -0.2310 ca         1 GT4      -0.153500
      7 C1          -5.5100    -0.2640     0.0080 c3         1 GT4       0.140900
      8 O1          -4.2520     0.4290    -0.0560 os         1 GT4      -0.414000
      9 C2          -3.0870    -0.4320    -0.0260 c3         1 GT4       0.073600
     10 C3          -1.7500     0.3520    -0.0970 c          1 GT4       0.603100
     11 O2          -1.6980     1.5770    -0.1710 o          1 GT4      -0.546100
     12 C9           1.3130     1.0960    -0.1950 ca         1 GT4      -0.097000
     13 O3           4.9170     0.3640    -0.2180 oh         1 GT4      -0.532100
     14 H1          -0.8520    -1.4600    -0.0050 hn         1 GT4       0.146000
     15 H2           1.2420    -2.3190     0.0060 ha         1 GT4       0.125500
     16 H3           3.6940    -1.9880    -0.0580 ha         1 GT4       0.122500
     17 H4           3.1210     2.2820    -0.2980 ha         1 GT4       0.122500
     18 H5          -5.5890    -0.8440     0.9360 h1         1 GT4       0.032700
     19 H6          -6.3410     0.4510    -0.0200 h1         1 GT4       0.032700
     20 H7          -5.6210    -0.9500    -0.8420 h1         1 GT4       0.032700
     21 H8          -3.0730    -1.0260     0.8970 h1         1 GT4       0.035200
     22 H9          -3.1050    -1.1310    -0.8720 h1         1 GT4       0.035200
     23 H10          0.6810     1.9770    -0.2350 ha         1 GT4       0.125500
     24 H11          5.3590    -0.5110    -0.1740 ho         1 GT4       0.463000
@<TRIPOS>BOND
     1     1     2 1   
     2     1    10 1   
     3     1    14 1   
     4     2     3 ar  
     5     2    12 ar  
     6     3     4 ar  
     7     3    15 1   
     8     4     5 ar  
     9     4    16 1   
    10     5     6 ar  
    11     5    13 1   
    12     6    12 ar  
    13     6    17 1   
    14     7     8 1   
    15     7    18 1   
    16     7    19 1   
    17     7    20 1   
    18     8     9 1   
    19     9    10 1   
    20     9    21 1   
    21     9    22 1   
    22    10    11 2   
    23    12    23 1   
    24    13    24 1   
@<TRIPOS>SUBSTRUCTURE
     1 GT4         1 TEMP              0 ****  ****    0 ROOT
