@<TRIPOS>MOLECULE
GT5
   81    82     1     0     0
SMALL
abcg2


@<TRIPOS>ATOM
      1 C4           9.3580     1.1740    -1.6130 c3         1 GT5      -0.135400
      2 C6           5.8570    -0.2890    -0.7390 cc         1 GT5      -0.307600
      3 C7           4.4940    -0.5320    -0.2310 c          1 GT5       0.650700
      4 C10          1.5430     0.1980    -0.3950 c          1 GT5       0.588100
      5 C13         -1.9840    -0.6020    -0.1230 c          1 GT5       0.607100
      6 C15         -4.4440    -0.4560    -0.2740 c3         1 GT5       0.112700
      7 C17         -4.1690     1.9610     0.3040 ca         1 GT5      -0.080300
      8 C20         -2.3410     3.6960     1.5700 ca         1 GT5      -0.087300
      9 C21         -1.3320     4.5810     2.2540 c3         1 GT5       0.197100
     10 C24         -4.2050     2.1590     1.6830 ca         1 GT5      -0.107000
     11 C26         -4.7680    -2.9010    -0.7200 c3         1 GT5      -0.301400
     12 C28         -4.7970    -5.6410    -1.3510 c3         1 GT5      -0.334100
     13 C3           8.0850     0.4380    -1.3990 cc         1 GT5       0.462700
     14 S5           6.8000     1.1300    -0.4730 ss         1 GT5      -0.047400
     15 N2           7.8230    -0.7480    -1.8560 nd         1 GT5      -0.651000
     16 C1           6.5830    -1.1640    -1.4900 cd         1 GT5       0.348900
     17 O44          3.9940    -1.6450    -0.2980 o          1 GT5      -0.588100
     18 N8           3.8560     0.5170     0.3200 ns         1 GT5      -0.479900
     19 C9           2.4990     0.3920     0.7830 c3         1 GT5       0.035700
     20 C40          2.0870     1.6460     1.5590 c3         1 GT5      -0.087400
     21 C41          2.9590     1.9680     2.7740 c3         1 GT5      -0.055700
     22 C43          2.4310     3.2320     3.4460 c3         1 GT5      -0.092100
     23 C42          3.0160     0.8140     3.7670 c3         1 GT5      -0.092100
     24 N11          0.4180    -0.4600    -0.0850 ns         1 GT5      -0.480900
     25 C12         -0.7120    -0.5370    -0.9700 c3         1 GT5       0.032700
     26 C32         -0.6630    -1.7380    -1.9110 c3         1 GT5       0.142600
     27 O36         -0.8830    -2.9020    -1.1620 os         1 GT5      -0.454000
     28 C34         -1.0130    -4.0490    -1.9670 c3         1 GT5       0.135900
     29 N14         -3.1110    -0.4530    -0.8320 ns         1 GT5      -0.499900
     30 C25         -5.2950    -1.4980    -0.9980 c3         1 GT5      -0.058400
     31 S27         -5.3970    -4.0660    -1.9210 s6         1 GT5       1.080000
     32 O29         -6.8590    -4.0680    -1.8530 o          1 GT5      -0.522500
     33 O30         -4.7740    -3.7730    -3.2140 o          1 GT5      -0.522500
     34 C16         -5.0620     0.9480    -0.3530 c3         1 GT5      -0.047100
     35 C18         -3.2200     2.6620    -0.4320 ca         1 GT5      -0.107000
     36 C19         -2.3180     3.5140     0.1920 ca         1 GT5      -0.093000
     37 N22         -1.9600     5.4650     3.2220 n8         1 GT5      -0.998200
     38 C23         -3.3120     3.0170     2.3050 ca         1 GT5      -0.093000
     39 H1           9.8570     1.3780    -0.6660 hc         1 GT5       0.062367
     40 H2          10.0230     0.5800    -2.2350 hc         1 GT5       0.062367
     41 H3           9.1820     2.1310    -2.1050 hc         1 GT5       0.062367
     42 H4          -4.3510    -0.7320     0.7770 h1         1 GT5       0.090700
     43 H5          -0.6240     3.9470     2.7950 h1         1 GT5       0.033200
     44 H6          -0.7410     5.1020     1.4890 h1         1 GT5       0.033200
     45 H7          -4.9380     1.6290     2.2810 ha         1 GT5       0.109000
     46 H8          -3.6790    -2.9480    -0.7930 h1         1 GT5       0.106200
     47 H9          -5.0640    -3.2520     0.2690 h1         1 GT5       0.106200
     48 H10         -5.1970    -5.8450    -0.3610 h1         1 GT5       0.104367
     49 H11         -5.1460    -6.3930    -2.0580 h1         1 GT5       0.104367
     50 H12         -3.7100    -5.6320    -1.3280 h1         1 GT5       0.104367
     51 H13          6.2290    -2.1360    -1.8030 h4         1 GT5       0.062100
     52 H14          4.2020     1.4520     0.1640 hn         1 GT5       0.321500
     53 H15          2.4320    -0.4780     1.4420 h1         1 GT5       0.088700
     54 H16          2.0830     2.5020     0.8760 hc         1 GT5       0.055700
     55 H17          1.0520     1.5150     1.8910 hc         1 GT5       0.055700
     56 H18          3.9780     2.1750     2.4300 hc         1 GT5       0.046700
     57 H19          1.4210     3.0740     3.8350 hc         1 GT5       0.036200
     58 H20          3.0630     3.5280     4.2840 hc         1 GT5       0.036200
     59 H21          2.3870     4.0700     2.7480 hc         1 GT5       0.036200
     60 H22          2.0120     0.5150     4.0790 hc         1 GT5       0.036200
     61 H23          3.5140    -0.0660     3.3570 hc         1 GT5       0.036200
     62 H24          3.5670     1.1050     4.6630 hc         1 GT5       0.036200
     63 H25          0.2820    -0.8020     0.8550 hn         1 GT5       0.346500
     64 H26         -0.7390     0.3640    -1.5900 h1         1 GT5       0.085700
     65 H27         -1.4250    -1.6180    -2.6930 h1         1 GT5       0.042700
     66 H28          0.3100    -1.7610    -2.4200 h1         1 GT5       0.042700
     67 H29         -1.8810    -3.9800    -2.6350 h1         1 GT5       0.033700
     68 H30         -0.1240    -4.2220    -2.5840 h1         1 GT5       0.033700
     69 H31         -1.1470    -4.9060    -1.3080 h1         1 GT5       0.033700
     70 H32         -3.0320    -0.2160    -1.8100 hn         1 GT5       0.312500
     71 H33         -6.3310    -1.4160    -0.6690 hc         1 GT5       0.063700
     72 H34         -5.2800    -1.2800    -2.0700 hc         1 GT5       0.063700
     73 H35         -5.2320     1.2100    -1.4020 hc         1 GT5       0.054700
     74 H36         -6.0400     0.9180     0.1310 hc         1 GT5       0.054700
     75 H37         -3.1820     2.5430    -1.5080 ha         1 GT5       0.109000
     76 H38         -1.5860     4.0430    -0.4070 ha         1 GT5       0.119500
     77 H39         -1.2470     5.9800     3.7210 hn         1 GT5       0.396500
     78 H40         -2.5170     6.1570     2.7360 hn         1 GT5       0.396500
     79 H42         -3.3660     3.1620     3.3770 ha         1 GT5       0.119500
     80 O39          1.7750     0.6620    -1.4990 o          1 GT5      -0.610100
     81 O31         -1.9450    -0.8080     1.0770 o          1 GT5      -0.598100
@<TRIPOS>BOND
     1     1    13 1   
     2     1    39 1   
     3     1    40 1   
     4     1    41 1   
     5     2     3 1   
     6     2    14 1   
     7     2    16 2   
     8     3    17 2   
     9     3    18 1   
    10     4    19 1   
    11     4    24 1   
    12     4    80 2   
    13     5    25 1   
    14     5    29 1   
    15     5    81 2   
    16     6    29 1   
    17     6    30 1   
    18     6    34 1   
    19     6    42 1   
    20     7    10 ar  
    21     7    34 1   
    22     7    35 ar  
    23     8     9 1   
    24     8    36 ar  
    25     8    38 ar  
    26     9    37 1   
    27     9    43 1   
    28     9    44 1   
    29    10    38 ar  
    30    10    45 1   
    31    11    30 1   
    32    11    31 1   
    33    11    46 1   
    34    11    47 1   
    35    12    31 1   
    36    12    48 1   
    37    12    49 1   
    38    12    50 1   
    39    13    14 1   
    40    13    15 2   
    41    15    16 1   
    42    16    51 1   
    43    18    19 1   
    44    18    52 1   
    45    19    20 1   
    46    19    53 1   
    47    20    21 1   
    48    20    54 1   
    49    20    55 1   
    50    21    22 1   
    51    21    23 1   
    52    21    56 1   
    53    22    57 1   
    54    22    58 1   
    55    22    59 1   
    56    23    60 1   
    57    23    61 1   
    58    23    62 1   
    59    24    25 1   
    60    24    63 1   
    61    25    26 1   
    62    25    64 1   
    63    26    27 1   
    64    26    65 1   
    65    26    66 1   
    66    27    28 1   
    67    28    67 1   
    68    28    68 1   
    69    28    69 1   
    70    29    70 1   
    71    30    71 1   
    72    30    72 1   
    73    31    32 2   
    74    31    33 2   
    75    34    73 1   
    76    34    74 1   
    77    35    36 ar  
    78    35    75 1   
    79    36    76 1   
    80    37    77 1   
    81    37    78 1   
    82    38    79 1   
@<TRIPOS>SUBSTRUCTURE
     1 GT5         1 TEMP              0 ****  ****    0 ROOT
