@<TRIPOS>MOLECULE
GT5
   81    82     1     0     0
SMALL
No Charge or Current Charge


@<TRIPOS>ATOM
      1 C4           8.7310     2.2960    -2.4470 c3         1 GT5      -0.135400
      2 C6           6.2380     0.4500    -0.1160 cc         1 GT5      -0.307600
      3 C7           5.0700    -0.0640     0.6070 c          1 GT5       0.650700
      4 C10          1.5250     0.0190    -0.4330 c          1 GT5       0.588100
      5 C13         -2.1530    -0.8130    -0.1860 c          1 GT5       0.607100
      6 C15         -4.6380    -0.4310    -0.3700 c3         1 GT5       0.112700
      7 C17         -3.8840     1.9230     0.3030 ca         1 GT5      -0.080300
      8 C20         -1.7920     3.4000     1.5080 ca         1 GT5      -0.087300
      9 C21         -0.6580     4.1820     2.1580 c3         1 GT5       0.197100
     10 C24         -3.7930     2.0140     1.7050 ca         1 GT5      -0.107000
     11 C26         -5.3890    -2.7960    -1.1090 c3         1 GT5      -0.301400
     12 C28         -6.0490    -5.4710    -1.8050 c3         1 GT5      -0.334100
     13 C3           7.9380     1.4830    -1.4690 cc         1 GT5       0.462700
     14 S5           6.2020     1.6440    -1.3860 ss         1 GT5      -0.047400
     15 N2           8.4950     0.6220    -0.6270 nd         1 GT5      -0.651000
     16 C1           7.5140     0.0240     0.1560 cd         1 GT5       0.348900
     17 O44          5.1350    -0.9010     1.4930 o          1 GT5      -0.588100
     18 N8           3.8870     0.4880     0.1830 ns         1 GT5      -0.479900
     19 C9           2.5450     0.1840     0.7300 c3         1 GT5       0.035700
     20 C40          2.0850     1.2910     1.7230 c3         1 GT5      -0.087400
     21 C41          2.9150     1.4210     3.0310 c3         1 GT5      -0.055700
     22 C43          2.5110     2.6880     3.8190 c3         1 GT5      -0.092100
     23 C42          2.8050     0.1680     3.9330 c3         1 GT5      -0.092100
     24 N11          0.3130    -0.5250    -0.0720 ns         1 GT5      -0.480900
     25 C12         -0.8310    -0.7390    -0.9900 c3         1 GT5       0.032700
     26 C32         -0.6420    -1.9870    -1.8850 c3         1 GT5       0.142600
     27 O36         -0.5550    -3.1520    -1.0430 os         1 GT5      -0.454000
     28 C34         -0.3830    -4.3900    -1.7510 c3         1 GT5       0.135900
     29 N14         -3.3000    -0.6410    -0.9360 ns         1 GT5      -0.499900
     30 C25         -5.6940    -1.2720    -1.1240 c3         1 GT5      -0.058400
     31 S27         -6.6360    -3.7870    -1.9600 s6         1 GT5       1.080000
     32 O29         -7.8950    -3.6790    -1.2120 o          1 GT5      -0.522500
     33 O30         -6.6090    -3.4310    -3.3840 o          1 GT5      -0.522500
     34 C16         -4.9800     1.0800    -0.3450 c3         1 GT5      -0.047100
     35 C18         -2.9250     2.5810    -0.4930 ca         1 GT5      -0.107000
     36 C19         -1.8840     3.3110     0.1060 ca         1 GT5      -0.093000
     37 N22         -1.0180     5.5990     2.3470 n8         1 GT5      -0.998200
     38 C23         -2.7550     2.7480     2.3040 ca         1 GT5      -0.093000
     39 H1           8.7820     3.3420    -2.1250 hc         1 GT5       0.062367
     40 H2           9.7550     1.9170    -2.5390 hc         1 GT5       0.062367
     41 H3           8.2680     2.2660    -3.4400 hc         1 GT5       0.062367
     42 H4          -4.6310    -0.7800     0.6720 h1         1 GT5       0.090700
     43 H5          -0.4180     3.7450     3.1370 h1         1 GT5       0.033200
     44 H6           0.2410     4.1240     1.5290 h1         1 GT5       0.033200
     45 H7          -4.5210     1.5040     2.3320 ha         1 GT5       0.109000
     46 H8          -4.4390    -3.0110    -1.6100 h1         1 GT5       0.106200
     47 H9          -5.3480    -3.1730    -0.0810 h1         1 GT5       0.106200
     48 H10         -5.9830    -5.7050    -0.7370 h1         1 GT5       0.104367
     49 H11         -6.7730    -6.1210    -2.3080 h1         1 GT5       0.104367
     50 H12         -5.0670    -5.5280    -2.2860 h1         1 GT5       0.104367
     51 H13          7.7960    -0.7100     0.9020 h4         1 GT5       0.062100
     52 H14          3.9510     1.1370    -0.5920 hn         1 GT5       0.321500
     53 H15          2.5750    -0.7840     1.2460 h1         1 GT5       0.088700
     54 H16          2.1010     2.2510     1.1920 hc         1 GT5       0.055700
     55 H17          1.0370     1.1180     2.0000 hc         1 GT5       0.055700
     56 H18          3.9700     1.5430     2.7570 hc         1 GT5       0.046700
     57 H19          1.4690     2.6240     4.1530 hc         1 GT5       0.036200
     58 H20          3.1470     2.8130     4.7040 hc         1 GT5       0.036200
     59 H21          2.6200     3.5850     3.1970 hc         1 GT5       0.036200
     60 H22          1.7630    -0.0140     4.2230 hc         1 GT5       0.036200
     61 H23          3.1790    -0.7270     3.4250 hc         1 GT5       0.036200
     62 H24          3.3950     0.2980     4.8480 hc         1 GT5       0.036200
     63 H25          0.1900    -0.7820     0.9020 hn         1 GT5       0.346500
     64 H26         -0.9140     0.1400    -1.6430 h1         1 GT5       0.085700
     65 H27         -1.4890    -2.0740    -2.5790 h1         1 GT5       0.042700
     66 H28          0.2720    -1.8720    -2.4820 h1         1 GT5       0.042700
     67 H29         -1.2270    -4.5730    -2.4290 h1         1 GT5       0.033700
     68 H30          0.5420    -4.3750    -2.3430 h1         1 GT5       0.033700
     69 H31         -0.3230    -5.2280    -1.0460 h1         1 GT5       0.033700
     70 H32         -3.1820    -0.5160    -1.9340 hn         1 GT5       0.312500
     71 H33         -6.6760    -1.0940    -0.6670 hc         1 GT5       0.063700
     72 H34         -5.7590    -0.9220    -2.1620 hc         1 GT5       0.063700
     73 H35         -5.1560     1.4240    -1.3720 hc         1 GT5       0.054700
     74 H36         -5.9280     1.2230     0.1880 hc         1 GT5       0.054700
     75 H37         -2.9770     2.5140    -1.5770 ha         1 GT5       0.109000
     76 H38         -1.1470     3.8070    -0.5220 ha         1 GT5       0.119500
     77 H39         -0.1970     6.1070     2.6980 hn         1 GT5       0.396500
     78 H40         -1.1910     6.0180     1.4270 hn         1 GT5       0.396500
     79 H42         -2.6950     2.8070     3.3880 ha         1 GT5       0.119500
     80 O39          1.7600     0.3530    -1.5890 o          1 GT5      -0.610100
     81 O31         -2.1850    -0.9680     1.0300 o          1 GT5      -0.598100
@<TRIPOS>BOND
     1     1    13 1   
     2     1    39 1   
     3     1    40 1   
     4     1    41 1   
     5     2     3 1   
     6     2    14 1   
     7     2    16 2   
     8     3    17 2   
     9     3    18 1   
    10     4    19 1   
    11     4    24 1   
    12     4    80 2   
    13     5    25 1   
    14     5    29 1   
    15     5    81 2   
    16     6    29 1   
    17     6    30 1   
    18     6    34 1   
    19     6    42 1   
    20     7    10 ar  
    21     7    34 1   
    22     7    35 ar  
    23     8     9 1   
    24     8    36 ar  
    25     8    38 ar  
    26     9    37 1   
    27     9    43 1   
    28     9    44 1   
    29    10    38 ar  
    30    10    45 1   
    31    11    30 1   
    32    11    31 1   
    33    11    46 1   
    34    11    47 1   
    35    12    31 1   
    36    12    48 1   
    37    12    49 1   
    38    12    50 1   
    39    13    14 1   
    40    13    15 2   
    41    15    16 1   
    42    16    51 1   
    43    18    19 1   
    44    18    52 1   
    45    19    20 1   
    46    19    53 1   
    47    20    21 1   
    48    20    54 1   
    49    20    55 1   
    50    21    22 1   
    51    21    23 1   
    52    21    56 1   
    53    22    57 1   
    54    22    58 1   
    55    22    59 1   
    56    23    60 1   
    57    23    61 1   
    58    23    62 1   
    59    24    25 1   
    60    24    63 1   
    61    25    26 1   
    62    25    64 1   
    63    26    27 1   
    64    26    65 1   
    65    26    66 1   
    66    27    28 1   
    67    28    67 1   
    68    28    68 1   
    69    28    69 1   
    70    29    70 1   
    71    30    71 1   
    72    30    72 1   
    73    31    32 2   
    74    31    33 2   
    75    34    73 1   
    76    34    74 1   
    77    35    36 ar  
    78    35    75 1   
    79    36    76 1   
    80    37    77 1   
    81    37    78 1   
    82    38    79 1   
@<TRIPOS>SUBSTRUCTURE
     1 GT5         1 TEMP              0 ****  ****    0 ROOT
