@<TRIPOS>MOLECULE
GT6
  114   119     1     0     0
SMALL
No Charge or Current Charge


@<TRIPOS>ATOM
      1 C0          -0.9020     5.7730    -2.3350 c3         1 GT6       0.147600
      2 N1           0.3770     5.2280    -1.8370 n7         1 GT6      -0.850900
      3 CA1          0.7200     3.8310    -2.2610 c3         1 GT6       0.100000
      4 C1           1.9180     3.1870    -1.4700 c          1 GT6       0.604100
      5 N2           1.7040     1.8790    -1.0780 ns         1 GT6      -0.477900
      6 CA2          2.7330     0.9800    -0.5060 c3         1 GT6       0.038200
      7 C2           2.6730    -0.4050    -1.2270 c          1 GT6       0.605600
      8 N3           3.6500    -1.3750    -0.9180 n          1 GT6      -0.389300
      9 O1           2.9630     3.7760    -1.2190 o          1 GT6      -0.586600
     10 O2           1.7610    -0.6810    -2.0010 o          1 GT6      -0.648600
     11 CD3          5.0680    -0.9990    -0.6920 c5         1 GT6       0.059500
     12 CG3          5.8060    -1.9850    -1.6360 c5         1 GT6       0.149300
     13 CB3          4.9990    -3.2730    -1.3700 c5         1 GT6      -0.093900
     14 CA3          3.5270    -2.7620    -1.4370 c5         1 GT6       0.103200
     15 CB4          2.5350    -3.6700    -0.6440 c3         1 GT6      -0.007200
     16 CG4          1.7900    -3.0490     0.5280 cc         1 GT6      -0.115400
     17 CD2          2.3510    -2.7730     1.8280 ca         1 GT6      -0.121300
     18 CE2          1.3330    -2.3940     2.6630 ca         1 GT6      -0.022700
     19 NE1          0.1230    -2.4140     2.0060 na         1 GT6      -0.202700
     20 CD1          0.4200    -2.8030     0.6870 cd         1 GT6       0.000900
     21 CZ2          1.5700    -2.0260     3.9930 ca         1 GT6      -0.172000
     22 CH2          2.8960    -2.0670     4.4630 ca         1 GT6       0.180000
     23 CZ3          3.9490    -2.4690     3.6120 ca         1 GT6      -0.187000
     24 CE3          3.6810    -2.8300     2.2760 ca         1 GT6      -0.039000
     25 F            3.1650    -1.7180     5.7400 f          1 GT6      -0.184000
     26 CB1          1.0170     3.7910    -3.7790 c3         1 GT6      -0.113100
     27 CB2          2.5990     0.8460     1.0350 c3         1 GT6      -0.085900
     28 CG2          3.1200     2.0670     1.8200 c3         1 GT6      -0.086600
     29 OG3          7.1850    -2.1480    -1.3030 oh         1 GT6      -0.644500
     30 N1B         -0.1400     5.3180     1.0700 n7         1 GT6      -0.850900
     31 CA6         -0.3780     3.9280     1.5770 c3         1 GT6       0.100000
     32 C1B         -1.7130     3.2860     1.0590 c          1 GT6       0.604100
     33 N2B         -1.6220     1.9380     0.7770 ns         1 GT6      -0.477900
     34 CA7         -2.7530     1.0630     0.3930 c3         1 GT6       0.038200
     35 N3B         -3.7590    -1.1820     1.0940 n          1 GT6      -0.389300
     36 O1B         -2.7530     3.9170     0.9030 o          1 GT6      -0.586600
     37 O2B         -1.8340    -0.4410     2.0770 o          1 GT6      -0.648600
     38 CD8         -5.1670    -0.7730     0.8690 c5         1 GT6       0.059500
     39 CG8         -5.9170    -1.6470     1.9100 c5         1 GT6       0.149300
     40 CB8         -5.1560    -2.9800     1.7450 c5         1 GT6      -0.093900
     41 CA8         -3.6680    -2.5110     1.7490 c5         1 GT6       0.103200
     42 CG9         -1.9490    -3.0310    -0.1820 cc         1 GT6      -0.115400
     43 CD7         -2.5040    -2.8550    -1.5020 ca         1 GT6      -0.121300
     44 CE7         -1.4790    -2.5790    -2.3660 ca         1 GT6      -0.022700
     45 NE6         -0.2680    -2.5730    -1.7100 na         1 GT6      -0.202700
     46 CD6         -0.5720    -2.8370    -0.3620 cd         1 GT6       0.000900
     47 CZ7         -1.7090    -2.3220    -3.7240 ca         1 GT6      -0.172000
     48 CH7         -3.0370    -2.3670    -4.1870 ca         1 GT6       0.180000
     49 CZ8         -4.0980    -2.6640    -3.3050 ca         1 GT6      -0.187000
     50 CE8         -3.8360    -2.9140    -1.9410 ca         1 GT6      -0.039000
     51 FB          -3.3000    -2.1240    -5.4900 f          1 GT6      -0.184000
     52 CB6         -0.3500     3.9070     3.1230 c3         1 GT6      -0.113100
     53 CB7         -2.7250     0.7390    -1.1250 c3         1 GT6      -0.085900
     54 CG7         -3.0470     1.9460    -2.0290 c3         1 GT6      -0.086600
     55 OG8         -7.3070    -1.7930     1.6160 oh         1 GT6      -0.644500
     56 H1          -0.9050     5.8590    -3.4290 h1         1 GT6       0.029867
     57 H2          -1.7430     5.1340    -2.0340 h1         1 GT6       0.029867
     58 H3          -1.0750     6.7750    -1.9200 h1         1 GT6       0.029867
     59 H4           0.3100     5.2350    -0.8000 hn         1 GT6       0.426500
     60 H6          -0.1450     3.1820    -2.0740 h1         1 GT6       0.040200
     61 H7           0.8360     1.4540    -1.3830 hn         1 GT6       0.312500
     62 H8           3.7200     1.4010    -0.7310 h1         1 GT6       0.088200
     63 H9           5.2900     0.0380    -0.9680 h1         1 GT6       0.060700
     64 H10          5.3480    -1.1490     0.3600 h1         1 GT6       0.060700
     65 H11          5.6950    -1.6730    -2.6850 h1         1 GT6       0.045700
     66 H12          5.1980    -4.0500    -2.1160 hc         1 GT6       0.068450
     67 H13          5.2530    -3.6980    -0.3940 hc         1 GT6       0.068450
     68 H14          3.2020    -2.7360    -2.4870 h1         1 GT6       0.068200
     69 H15          1.8220    -4.1100    -1.3490 hc         1 GT6       0.054950
     70 H16          3.0750    -4.5430    -0.2590 hc         1 GT6       0.054950
     71 H17         -0.7360    -1.9510     2.2980 hn         1 GT6       0.395500
     72 H18          0.7590    -1.7170     4.6460 ha         1 GT6       0.138000
     73 H19          4.9670    -2.4970     3.9900 ha         1 GT6       0.128000
     74 H20          4.4850    -3.1370     1.6170 ha         1 GT6       0.115500
     75 H21          1.3030     2.7760    -4.0830 hc         1 GT6       0.048367
     76 H22          0.1380     4.0750    -4.3680 hc         1 GT6       0.048367
     77 H23          1.8420     4.4670    -4.0330 hc         1 GT6       0.048367
     78 H24          1.5520     0.6500     1.2980 hc         1 GT6       0.057950
     79 H25          3.1670    -0.0270     1.3770 hc         1 GT6       0.057950
     80 H26          4.1930     2.2060     1.6440 hc         1 GT6       0.038367
     81 H27          2.6040     2.9840     1.5200 hc         1 GT6       0.038367
     82 H28          2.9650     1.9220     2.8960 hc         1 GT6       0.038367
     83 H29          7.6470    -1.3240    -1.5740 ho         1 GT6       0.450000
     84 H30          1.2980     6.1070     2.4430 h1         1 GT6       0.029867
     85 H31          1.9920     5.2930     1.0190 h1         1 GT6       0.029867
     86 H32          1.2600     6.9030     0.8590 h1         1 GT6       0.029867
     87 H35          0.4280     3.2780     1.2170 h1         1 GT6       0.040200
     88 H37         -3.6910     1.5840     0.6190 h1         1 GT6       0.088200
     89 H38         -5.3400     0.2940     1.0590 h1         1 GT6       0.060700
     90 H39         -5.4790    -1.0010    -0.1590 h1         1 GT6       0.060700
     91 H40         -5.7750    -1.2480     2.9240 h1         1 GT6       0.045700
     92 H41         -5.3680    -3.6830     2.5570 hc         1 GT6       0.068450
     93 H42         -5.4370    -3.4760     0.8100 hc         1 GT6       0.068450
     94 H43         -3.3300    -2.3900     2.7880 h1         1 GT6       0.068200
     95 H46          0.6040    -2.1640    -2.0440 hn         1 GT6       0.395500
     96 H47         -0.8920    -2.0930    -4.4020 ha         1 GT6       0.138000
     97 H48         -5.1180    -2.6970    -3.6770 ha         1 GT6       0.128000
     98 H49         -4.6470    -3.1390    -1.2570 ha         1 GT6       0.115500
     99 H50         -1.1020     4.5890     3.5380 hc         1 GT6       0.048367
    100 H51         -0.5650     2.8980     3.4930 hc         1 GT6       0.048367
    101 H52          0.6350     4.1940     3.5090 hc         1 GT6       0.048367
    102 H53         -1.7430     0.3300    -1.3930 hc         1 GT6       0.057950
    103 H54         -3.4560    -0.0460    -1.3480 hc         1 GT6       0.057950
    104 H55         -4.0580     2.3200    -1.8260 hc         1 GT6       0.038367
    105 H56         -2.3400     2.7640    -1.8620 hc         1 GT6       0.038367
    106 H57         -2.9940     1.6560    -3.0850 hc         1 GT6       0.038367
    107 H58         -7.7370    -0.9330     1.8190 ho         1 GT6       0.450000
    108 CB9         -2.7120    -3.5210     1.0400 c3         1 GT6      -0.007200
    109 C2B         -2.7410    -0.2240     1.2780 c          1 GT6       0.605600
    110 H36         -0.7400     1.4900     0.9970 hn         1 GT6       0.312500
    111 H33         -0.8860     5.9300     1.4310 hn         1 GT6       0.426500
    112 C0B          1.1710     5.9340     1.3660 c3         1 GT6       0.147600
    113 H44         -2.0130    -3.9240     1.7790 hc         1 GT6       0.054950
    114 H45         -3.2850    -4.4040     0.7310 hc         1 GT6       0.054950
@<TRIPOS>BOND
     1     1     2 1   
     2     1    56 1   
     3     1    57 1   
     4     1    58 1   
     5     2     3 1   
     6     2    59 1   
     7     3     4 1   
     8     3    26 1   
     9     3    60 1   
    10     4     5 1   
    11     4     9 2   
    12     5     6 1   
    13     5    61 1   
    14     6     7 1   
    15     6    27 1   
    16     6    62 1   
    17     7     8 1   
    18     7    10 2   
    19     8    11 1   
    20     8    14 1   
    21    11    12 1   
    22    11    63 1   
    23    11    64 1   
    24    12    13 1   
    25    12    29 1   
    26    12    65 1   
    27    13    14 1   
    28    13    66 1   
    29    13    67 1   
    30    14    15 1   
    31    14    68 1   
    32    15    16 1   
    33    15    69 1   
    34    15    70 1   
    35    16    17 1   
    36    16    20 2   
    37    17    18 ar  
    38    17    24 ar  
    39    18    19 1   
    40    18    21 ar  
    41    19    20 1   
    42    19    71 1   
    43    20    46 1   
    44    21    22 ar  
    45    21    72 1   
    46    22    23 ar  
    47    22    25 1   
    48    23    24 ar  
    49    23    73 1   
    50    24    74 1   
    51    26    75 1   
    52    26    76 1   
    53    26    77 1   
    54    27    28 1   
    55    27    78 1   
    56    27    79 1   
    57    28    80 1   
    58    28    81 1   
    59    28    82 1   
    60    29    83 1   
    61    30    31 1   
    62    30   111 1   
    63    30   112 1   
    64    31    32 1   
    65    31    52 1   
    66    31    87 1   
    67    32    33 1   
    68    32    36 2   
    69    33    34 1   
    70    33   110 1   
    71    34    53 1   
    72    34    88 1   
    73    34   109 1   
    74    35    38 1   
    75    35    41 1   
    76    35   109 1   
    77    37   109 2   
    78    38    39 1   
    79    38    89 1   
    80    38    90 1   
    81    39    40 1   
    82    39    55 1   
    83    39    91 1   
    84    40    41 1   
    85    40    92 1   
    86    40    93 1   
    87    41    94 1   
    88    41   108 1   
    89    42    43 1   
    90    42    46 2   
    91    42   108 1   
    92    43    44 ar  
    93    43    50 ar  
    94    44    45 1   
    95    44    47 ar  
    96    45    46 1   
    97    45    95 1   
    98    47    48 ar  
    99    47    96 1   
   100    48    49 ar  
   101    48    51 1   
   102    49    50 ar  
   103    49    97 1   
   104    50    98 1   
   105    52    99 1   
   106    52   100 1   
   107    52   101 1   
   108    53    54 1   
   109    53   102 1   
   110    53   103 1   
   111    54   104 1   
   112    54   105 1   
   113    54   106 1   
   114    55   107 1   
   115    84   112 1   
   116    85   112 1   
   117    86   112 1   
   118   108   113 1   
   119   108   114 1   
@<TRIPOS>SUBSTRUCTURE
     1 GT6         1 TEMP              0 ****  ****    0 ROOT
