@<TRIPOS>MOLECULE
GT6
  114   119     1     0     0
SMALL
bcc


@<TRIPOS>ATOM
      1 C0           0.8480     5.7600    -2.4580 c3         1 GT6       0.147600
      2 N1           1.8590     4.7230    -2.4890 n7         1 GT6      -0.795700
      3 CA1          1.5690     3.6100    -1.6120 c3         1 GT6       0.100000
      4 C1           2.7830     2.6940    -1.5190 c          1 GT6       0.671100
      5 N2           2.9500     2.1130    -0.3120 ns         1 GT6      -0.544900
      6 CA2          3.8090     0.9750    -0.1260 c3         1 GT6       0.038200
      7 C2           3.1500    -0.2650    -0.7550 c          1 GT6       0.672600
      8 N3           3.8470    -1.4110    -0.7750 n          1 GT6      -0.456300
      9 O1           3.5320     2.4940    -2.4590 o          1 GT6      -0.586600
     10 O2           2.0050    -0.1780    -1.1830 o          1 GT6      -0.648600
     11 CD3          5.2830    -1.5520    -0.6440 c5         1 GT6       0.059500
     12 CG3          5.6240    -2.4140    -1.8630 c5         1 GT6       0.126100
     13 CB3          4.4630    -3.4030    -1.9050 c5         1 GT6      -0.093900
     14 CA3          3.2640    -2.6500    -1.3030 c5         1 GT6       0.103200
     15 CB4          2.5410    -3.4790    -0.2220 c3         1 GT6      -0.007200
     16 CG4          1.7460    -2.7050     0.7760 cc         1 GT6      -0.115400
     17 CD2          2.2360    -2.2800     2.0530 ca         1 GT6      -0.121300
     18 CE2          1.1910    -1.5720     2.6880 ca         1 GT6      -0.022700
     19 NE1          0.1140    -1.6040     1.8630 na         1 GT6      -0.152400
     20 CD1          0.4500    -2.2620     0.7040 cd         1 GT6       0.000900
     21 CZ2          1.3470    -0.9740     3.9390 ca         1 GT6      -0.190000
     22 CH2          2.5760    -1.1330     4.5330 ca         1 GT6       0.144900
     23 CZ3          3.6290    -1.8510     3.9590 ca         1 GT6      -0.205000
     24 CE3          3.4580    -2.4270     2.7160 ca         1 GT6      -0.057000
     25 F            2.7840    -0.5710     5.7400 f          1 GT6      -0.148900
     26 CB1          0.3950     2.7800    -2.1370 c3         1 GT6      -0.113100
     27 CB2          4.0910     0.7650     1.3640 c3         1 GT6      -0.085900
     28 CG2          4.7350     1.9780     2.0180 c3         1 GT6      -0.086600
     29 OG3          6.8490    -3.0890    -1.7740 oh         1 GT6      -0.582300
     30 N1B         -1.7350     5.0010     1.7990 n7         1 GT6      -0.795700
     31 CA6         -1.4250     3.7680     1.1100 c3         1 GT6       0.100000
     32 C1B         -2.6800     2.9070     1.0620 c          1 GT6       0.671100
     33 N2B         -2.8710     2.2210    -0.0850 ns         1 GT6      -0.544900
     34 CA7         -3.7690     1.0980    -0.1470 c3         1 GT6       0.038200
     35 N3B         -3.9210    -1.1610     0.8480 n          1 GT6      -0.456300
     36 O1B         -3.4440     2.8310     2.0090 o          1 GT6      -0.586600
     37 O2B         -2.0270     0.0330     1.0890 o          1 GT6      -0.648600
     38 CD8         -5.3620    -1.2550     0.7150 c5         1 GT6       0.059500
     39 CG8         -5.7550    -1.8730     2.0580 c5         1 GT6       0.126100
     40 CB8         -4.6580    -2.9110     2.2630 c5         1 GT6      -0.093900
     41 CA8         -3.4030    -2.3030     1.6130 c5         1 GT6       0.103200
     42 CG9         -1.8270    -2.7530    -0.3730 cc         1 GT6      -0.115400
     43 CD7         -2.3120    -2.5240    -1.7010 ca         1 GT6      -0.121300
     44 CE7         -1.2520    -1.9570    -2.4430 ca         1 GT6      -0.022700
     45 NE6         -0.1720    -1.8830    -1.6230 na         1 GT6      -0.152400
     46 CD6         -0.5200    -2.3400    -0.3750 cd         1 GT6       0.000900
     47 CZ7         -1.3930    -1.5710    -3.7760 ca         1 GT6      -0.190000
     48 CH7         -2.6280    -1.7920    -4.3380 ca         1 GT6       0.144900
     49 CZ8         -3.6990    -2.3730    -3.6540 ca         1 GT6      -0.205000
     50 CE8         -3.5400    -2.7420    -2.3330 ca         1 GT6      -0.057000
     51 FB          -2.8230    -1.4350    -5.6240 f          1 GT6      -0.148900
     52 CB6         -0.2990     2.9300     1.7320 c3         1 GT6      -0.113100
     53 CB7         -4.0210     0.7000    -1.6030 c3         1 GT6      -0.085900
     54 CG7         -4.6400     1.8200    -2.4270 c3         1 GT6      -0.086600
     55 OG8         -7.0200    -2.4710     2.0800 oh         1 GT6      -0.582300
     56 H1          -0.0680     5.4290    -2.9500 h1         1 GT6       0.029867
     57 H2           0.5770     6.0910    -1.4450 h1         1 GT6       0.029867
     58 H3           1.2090     6.6290    -3.0060 h1         1 GT6       0.029867
     59 H4           2.7460     5.1320    -2.2260 hn         1 GT6       0.371300
     60 H6           1.3160     3.9550    -0.5930 h1         1 GT6       0.040200
     61 H7           2.2140     2.2350     0.3660 hn         1 GT6       0.312500
     62 H8           4.7550     1.1860    -0.6320 h1         1 GT6       0.088200
     63 H9           5.8010    -0.5950    -0.6520 h1         1 GT6       0.060700
     64 H10          5.5510    -2.0760     0.2790 h1         1 GT6       0.060700
     65 H11          5.5890    -1.7700    -2.7510 h1         1 GT6       0.045700
     66 H12          4.2530    -3.7590    -2.9130 hc         1 GT6       0.068450
     67 H13          4.7200    -4.2740    -1.2960 hc         1 GT6       0.068450
     68 H14          2.5510    -2.3940    -2.0860 h1         1 GT6       0.068200
     69 H15          1.9150    -4.2120    -0.7380 hc         1 GT6       0.054950
     70 H16          3.2890    -4.0610     0.3250 hc         1 GT6       0.054950
     71 H17         -0.7110    -1.0100     1.9050 hn         1 GT6       0.345200
     72 H18          0.5530    -0.4180     4.4210 ha         1 GT6       0.156000
     73 H19          4.5680    -1.9400     4.4880 ha         1 GT6       0.146000
     74 H20          4.2740    -2.9740     2.2600 ha         1 GT6       0.133500
     75 H21          0.2140     1.9130    -1.5020 hc         1 GT6       0.048367
     76 H22         -0.5160     3.3780    -2.1780 hc         1 GT6       0.048367
     77 H23          0.6030     2.4190    -3.1440 hc         1 GT6       0.048367
     78 H24          3.1660     0.4910     1.8810 hc         1 GT6       0.057950
     79 H25          4.7520    -0.0930     1.4760 hc         1 GT6       0.057950
     80 H26          5.6420     2.2730     1.4900 hc         1 GT6       0.038367
     81 H27          4.0690     2.8400     2.0430 hc         1 GT6       0.038367
     82 H28          5.0100     1.7470     3.0480 hc         1 GT6       0.038367
     83 H29          7.5590    -2.4570    -1.9220 ho         1 GT6       0.411000
     84 H30          0.2660     5.6480     2.2860 h1         1 GT6       0.029867
     85 H31         -0.4120     6.2530     0.7740 h1         1 GT6       0.029867
     86 H32         -0.9970     6.8770     2.3080 h1         1 GT6       0.029867
     87 H35         -1.1370     4.0360     0.0860 h1         1 GT6       0.040200
     88 H37         -4.7180     1.4040     0.3010 h1         1 GT6       0.088200
     89 H38         -5.8270    -0.2890     0.5340 h1         1 GT6       0.060700
     90 H39         -5.6430    -1.9250    -0.1050 h1         1 GT6       0.060700
     91 H40         -5.6670    -1.0920     2.8260 h1         1 GT6       0.045700
     92 H41         -4.4960    -3.1570     3.3110 hc         1 GT6       0.068450
     93 H42         -4.9470    -3.8310     1.7470 hc         1 GT6       0.068450
     94 H43         -2.7330    -1.9190     2.3830 h1         1 GT6       0.068200
     95 H46          0.6650    -1.3190    -1.7570 hn         1 GT6       0.345200
     96 H47         -0.5860    -1.1240    -4.3420 ha         1 GT6       0.156000
     97 H48         -4.6420    -2.5230    -4.1630 ha         1 GT6       0.146000
     98 H49         -4.3710    -3.1850    -1.7980 ha         1 GT6       0.133500
     99 H50         -0.5630     2.6250     2.7460 hc         1 GT6       0.048367
    100 H51         -0.1080     2.0220     1.1590 hc         1 GT6       0.048367
    101 H52          0.6250     3.5070     1.7880 hc         1 GT6       0.048367
    102 H53         -3.0860     0.3570    -2.0590 hc         1 GT6       0.057950
    103 H54         -4.6830    -0.1650    -1.6210 hc         1 GT6       0.057950
    104 H55         -5.5740     2.1640    -1.9790 hc         1 GT6       0.038367
    105 H56         -3.9790     2.6820    -2.5190 hc         1 GT6       0.038367
    106 H57         -4.8630     1.4680    -3.4340 hc         1 GT6       0.038367
    107 H58         -7.6870    -1.7790     2.1180 ho         1 GT6       0.411000
    108 CB9         -2.6350    -3.3240     0.7440 c3         1 GT6      -0.007200
    109 C2B         -3.1710    -0.0640     0.6610 c          1 GT6       0.672600
    110 H36         -2.1210     2.2300    -0.7580 hn         1 GT6       0.312500
    111 H33         -2.0180     4.7980     2.7490 hn         1 GT6       0.371300
    112 C0B         -0.6620     5.9730     1.8000 c3         1 GT6       0.147600
    113 H44         -2.0090    -3.9150     1.4170 hc         1 GT6       0.054950
    114 H45         -3.3530    -4.0260     0.3110 hc         1 GT6       0.054950
@<TRIPOS>BOND
     1     1     2 1   
     2     1    56 1   
     3     1    57 1   
     4     1    58 1   
     5     2     3 1   
     6     2    59 1   
     7     3     4 1   
     8     3    26 1   
     9     3    60 1   
    10     4     5 1   
    11     4     9 2   
    12     5     6 1   
    13     5    61 1   
    14     6     7 1   
    15     6    27 1   
    16     6    62 1   
    17     7     8 1   
    18     7    10 2   
    19     8    11 1   
    20     8    14 1   
    21    11    12 1   
    22    11    63 1   
    23    11    64 1   
    24    12    13 1   
    25    12    29 1   
    26    12    65 1   
    27    13    14 1   
    28    13    66 1   
    29    13    67 1   
    30    14    15 1   
    31    14    68 1   
    32    15    16 1   
    33    15    69 1   
    34    15    70 1   
    35    16    17 1   
    36    16    20 2   
    37    17    18 ar  
    38    17    24 ar  
    39    18    19 1   
    40    18    21 ar  
    41    19    20 1   
    42    19    71 1   
    43    20    46 1   
    44    21    22 ar  
    45    21    72 1   
    46    22    23 ar  
    47    22    25 1   
    48    23    24 ar  
    49    23    73 1   
    50    24    74 1   
    51    26    75 1   
    52    26    76 1   
    53    26    77 1   
    54    27    28 1   
    55    27    78 1   
    56    27    79 1   
    57    28    80 1   
    58    28    81 1   
    59    28    82 1   
    60    29    83 1   
    61    30    31 1   
    62    30   111 1   
    63    30   112 1   
    64    31    32 1   
    65    31    52 1   
    66    31    87 1   
    67    32    33 1   
    68    32    36 2   
    69    33    34 1   
    70    33   110 1   
    71    34    53 1   
    72    34    88 1   
    73    34   109 1   
    74    35    38 1   
    75    35    41 1   
    76    35   109 1   
    77    37   109 2   
    78    38    39 1   
    79    38    89 1   
    80    38    90 1   
    81    39    40 1   
    82    39    55 1   
    83    39    91 1   
    84    40    41 1   
    85    40    92 1   
    86    40    93 1   
    87    41    94 1   
    88    41   108 1   
    89    42    43 1   
    90    42    46 2   
    91    42   108 1   
    92    43    44 ar  
    93    43    50 ar  
    94    44    45 1   
    95    44    47 ar  
    96    45    46 1   
    97    45    95 1   
    98    47    48 ar  
    99    47    96 1   
   100    48    49 ar  
   101    48    51 1   
   102    49    50 ar  
   103    49    97 1   
   104    50    98 1   
   105    52    99 1   
   106    52   100 1   
   107    52   101 1   
   108    53    54 1   
   109    53   102 1   
   110    53   103 1   
   111    54   104 1   
   112    54   105 1   
   113    54   106 1   
   114    55   107 1   
   115    84   112 1   
   116    85   112 1   
   117    86   112 1   
   118   108   113 1   
   119   108   114 1   
@<TRIPOS>SUBSTRUCTURE
     1 GT6         1 TEMP              0 ****  ****    0 ROOT
