@<TRIPOS>MOLECULE
GT7
   26    26     1     0     0
SMALL
No Charge or Current Charge


@<TRIPOS>ATOM
      1 N1           0.4430     0.4580    -0.3600 ns         1 GT7      -0.505900
      2 C4          -0.8630     0.0180     0.1450 c6         1 GT7       0.110700
      3 C5          -1.7700     1.2470     0.4120 c6         1 GT7      -0.089900
      4 C6          -3.1720     0.8180     0.9140 c6         1 GT7      -0.071900
      5 C7           1.6180    -0.2580    -0.2750 c          1 GT7       0.607100
      6 C8           2.8370     0.4100    -0.8900 c3         1 GT7      -0.108300
      7 C1          -3.8520    -0.1470    -0.0870 c6         1 GT7      -0.077400
      8 C2          -2.9510    -1.3720    -0.3820 c6         1 GT7      -0.071900
      9 C3          -1.5510    -0.9300    -0.8740 c6         1 GT7      -0.089900
     10 O1           1.6720    -1.3550     0.2640 o          1 GT7      -0.578100
     11 C9           3.6880     0.9920     0.1430 c1         1 GT7       0.312900
     12 N2           4.3790     1.4750     0.9470 n1         1 GT7      -0.438000
     13 H1           0.4940     1.3580    -0.8220 hn         1 GT7       0.310500
     14 H2          -0.7110    -0.5220     1.0920 h1         1 GT7       0.079700
     15 H3          -1.2980     1.9020     1.1570 hc         1 GT7       0.044950
     16 H4          -1.8760     1.8420    -0.5060 hc         1 GT7       0.044950
     17 H5          -3.0800     0.3300     1.8950 hc         1 GT7       0.044450
     18 H6          -3.8020     1.7050     1.0640 hc         1 GT7       0.044450
     19 H7           3.4270    -0.3390    -1.4280 hc         1 GT7       0.084200
     20 H8           2.5340     1.2170    -1.5650 hc         1 GT7       0.084200
     21 H9          -4.8190    -0.4820     0.3140 hc         1 GT7       0.041200
     22 H10         -4.0710     0.3850    -1.0230 hc         1 GT7       0.041200
     23 H11         -2.8490    -1.9830     0.5260 hc         1 GT7       0.044450
     24 H12         -3.4280    -2.0120    -1.1360 hc         1 GT7       0.044450
     25 H13         -1.6440    -0.4280    -1.8480 hc         1 GT7       0.044950
     26 H14         -0.9250    -1.8170    -1.0410 hc         1 GT7       0.044950
@<TRIPOS>BOND
     1     1     2 1   
     2     1     5 1   
     3     1    13 1   
     4     2     3 1   
     5     2     9 1   
     6     2    14 1   
     7     3     4 1   
     8     3    15 1   
     9     3    16 1   
    10     4     7 1   
    11     4    17 1   
    12     4    18 1   
    13     5     6 1   
    14     5    10 2   
    15     6    11 1   
    16     6    19 1   
    17     6    20 1   
    18     7     8 1   
    19     7    21 1   
    20     7    22 1   
    21     8     9 1   
    22     8    23 1   
    23     8    24 1   
    24     9    25 1   
    25     9    26 1   
    26    11    12 3   
@<TRIPOS>SUBSTRUCTURE
     1 GT7         1 TEMP              0 ****  ****    0 ROOT
