@<TRIPOS>MOLECULE
GT7
   26    26     1     0     0
SMALL
bcc


@<TRIPOS>ATOM
      1 N1           0.3620     0.6480    -0.3330 ns         1 GT7      -0.572900
      2 C4          -0.9250     0.1660     0.1400 c6         1 GT7       0.110700
      3 C5          -1.9360     1.3070     0.1360 c6         1 GT7      -0.089900
      4 C6          -3.3000     0.8320     0.6280 c6         1 GT7      -0.071900
      5 C7           1.5330     0.1390     0.0590 c          1 GT7       0.674100
      6 C8           2.7400     0.7980    -0.6070 c3         1 GT7      -0.108300
      7 C1          -3.8080    -0.3540    -0.1860 c6         1 GT7      -0.077400
      8 C2          -2.7900    -1.4900    -0.1930 c6         1 GT7      -0.071900
      9 C3          -1.4290    -1.0130    -0.6920 c6         1 GT7      -0.089900
     10 O1           1.6670    -0.7560     0.8750 o          1 GT7      -0.578100
     11 C9           3.9780     0.1870    -0.1660 c1         1 GT7       0.223700
     12 N2           4.9710    -0.2850     0.1690 n1         1 GT7      -0.348800
     13 H1           0.3570     1.3540    -1.0540 hn         1 GT7       0.310500
     14 H2          -0.7850    -0.1680     1.1720 h1         1 GT7       0.079700
     15 H3          -1.5710     2.1280     0.7590 hc         1 GT7       0.044950
     16 H4          -2.0330     1.7000    -0.8830 hc         1 GT7       0.044950
     17 H5          -3.2230     0.5410     1.6810 hc         1 GT7       0.044450
     18 H6          -4.0140     1.6570     0.5860 hc         1 GT7       0.044450
     19 H7           2.6720     0.7180    -1.6940 hc         1 GT7       0.084200
     20 H8           2.7680     1.8650    -0.3720 hc         1 GT7       0.084200
     21 H9          -4.7630    -0.7020     0.2150 hc         1 GT7       0.041200
     22 H10         -4.0020    -0.0320    -1.2150 hc         1 GT7       0.041200
     23 H11         -2.6840    -1.8880     0.8220 hc         1 GT7       0.044450
     24 H12         -3.1440    -2.3170    -0.8130 hc         1 GT7       0.044450
     25 H13         -1.5090    -0.6980    -1.7380 hc         1 GT7       0.044950
     26 H14         -0.7020    -1.8270    -0.6590 hc         1 GT7       0.044950
@<TRIPOS>BOND
     1     1     2 1   
     2     1     5 1   
     3     1    13 1   
     4     2     3 1   
     5     2     9 1   
     6     2    14 1   
     7     3     4 1   
     8     3    15 1   
     9     3    16 1   
    10     4     7 1   
    11     4    17 1   
    12     4    18 1   
    13     5     6 1   
    14     5    10 2   
    15     6    11 1   
    16     6    19 1   
    17     6    20 1   
    18     7     8 1   
    19     7    21 1   
    20     7    22 1   
    21     8     9 1   
    22     8    23 1   
    23     8    24 1   
    24     9    25 1   
    25     9    26 1   
    26    11    12 3   
@<TRIPOS>SUBSTRUCTURE
     1 GT7         1 TEMP              0 ****  ****    0 ROOT
