@<TRIPOS>MOLECULE
GT8
   95    97     1     0     0
SMALL
abcg2


@<TRIPOS>ATOM
      1 C4          -7.1190     0.5310     2.3340 c6         1 GT8      -0.071900
      2 C5          -7.9800     1.4160     3.2290 c6         1 GT8      -0.072400
      3 C6          -7.2610     1.7760     4.5240 c6         1 GT8      -0.074400
      4 C8          -4.5400    -0.9480    -1.0440 c3         1 GT8       0.073700
      5 C24         -0.7990    -0.2840    -0.7300 c3         1 GT8       0.023700
      6 C2          -5.0510     1.5230     3.3420 c6         1 GT8      -0.071900
      7 C1          -5.9060     2.4130     4.2360 c6         1 GT8      -0.072400
      8 C3          -5.7570     1.1610     2.0340 c6         1 GT8      -0.058700
      9 C50         -4.8660     0.2610     1.1780 c3         1 GT8      -0.071400
     10 C9          -5.0260    -1.1920    -2.4910 c3         1 GT8       0.143300
     11 O21         -4.0620    -1.9370    -3.1970 oh         1 GT8      -0.649000
     12 C12         -6.3650    -1.9560    -2.6400 c3         1 GT8       0.195000
     13 O13         -7.4350    -1.1580    -2.1590 oh         1 GT8      -0.662000
     14 N22         -3.1780    -0.4360    -1.1060 ns         1 GT8      -0.516900
     15 C23         -2.1060    -1.0590    -0.5830 c          1 GT8       0.590100
     16 O49         -2.1340    -2.1700    -0.0820 o          1 GT8      -0.589100
     17 C40         -0.3020    -0.3800    -2.1930 c3         1 GT8      -0.037100
     18 C41          1.0910     0.1590    -2.3360 ca         1 GT8      -0.133300
     19 C48          1.3350     1.5270    -2.4390 ca         1 GT8      -0.063000
     20 C47          2.6240     2.0250    -2.4940 ca         1 GT8      -0.165500
     21 C44          3.7160     1.1570    -2.4390 ca         1 GT8       0.141100
     22 O45          4.9400     1.7220    -2.4870 os         1 GT8      -0.349100
     23 C46          6.0700     0.8710    -2.4510 c3         1 GT8       0.133900
     24 C43          3.4890    -0.2110    -2.3410 ca         1 GT8      -0.165500
     25 C42          2.1870    -0.6910    -2.2900 ca         1 GT8      -0.063000
     26 N25          0.1750    -0.7980     0.1910 ns         1 GT8      -0.480900
     27 O39          0.9090     1.1990     0.9640 o          1 GT8      -0.608100
     28 C27          2.0190    -0.7770     1.7550 c3         1 GT8       0.033700
     29 C38          1.4160    -1.1230     3.1150 c3         1 GT8      -0.101100
     30 N28          3.2070     0.0230     1.8980 ns         1 GT8      -0.497900
     31 C29          4.3650    -0.2210     1.2500 c          1 GT8       0.605100
     32 O37          4.5960    -1.2490     0.6400 o          1 GT8      -0.588100
     33 C30          5.3460     0.9390     1.3320 c3         1 GT8       0.082800
     34 N31          6.6980     0.5660     1.0220 n3         1 GT8      -0.703600
     35 C36          7.3070    -0.2630     2.0470 c6         1 GT8       0.124300
     36 C35          8.7080    -0.6570     1.6200 c6         1 GT8       0.154100
     37 O34          9.5110     0.4730     1.3630 os         1 GT8      -0.450000
     38 C33          8.9250     1.2910     0.3750 c6         1 GT8       0.154100
     39 C32          7.5290     1.7300     0.7720 c6         1 GT8       0.124300
     40 H1          -6.9570    -0.4380     2.8230 hc         1 GT8       0.039700
     41 H2          -7.6560     0.3190     1.4060 hc         1 GT8       0.039700
     42 H3          -8.2350     2.3360     2.6910 hc         1 GT8       0.037700
     43 H4          -8.9270     0.9160     3.4470 hc         1 GT8       0.037700
     44 H5          -7.8780     2.4500     5.1240 hc         1 GT8       0.037700
     45 H6          -7.1200     0.8710     5.1250 hc         1 GT8       0.037700
     46 H7          -5.5330     0.9470    -0.7560 hc         1 GT8       0.055200
     47 H8          -6.4090    -0.4360    -0.1520 hc         1 GT8       0.055200
     48 H9          -4.4770    -1.9080    -0.5300 h1         1 GT8       0.097700
     49 H10         -6.3810    -3.0380    -0.7460 hc         1 GT8       0.047033
     50 H11         -7.2820    -3.8190    -2.0390 hc         1 GT8       0.047033
     51 H12         -5.5210    -3.8610    -2.0460 hc         1 GT8       0.047033
     52 H13         -0.9640     0.7660    -0.4840 h1         1 GT8       0.092700
     53 H14         -4.0990     2.0140     3.1210 hc         1 GT8       0.039700
     54 H15         -4.8020     0.5980     3.8770 hc         1 GT8       0.039700
     55 H16         -6.0620     3.3780     3.7410 hc         1 GT8       0.037700
     56 H17         -5.3800     2.6270     5.1700 hc         1 GT8       0.037700
     57 H18         -5.9300     2.0930     1.4780 hc         1 GT8       0.041700
     58 H19         -4.7160    -0.6930     1.6980 hc         1 GT8       0.042200
     59 H20         -3.8770     0.7250     1.1070 hc         1 GT8       0.042200
     60 H21         -5.1650    -0.2030    -2.9660 h1         1 GT8       0.016700
     61 H22         -3.2250    -1.4660    -3.1430 ho         1 GT8       0.448000
     62 H23         -7.6230    -2.6670    -4.2370 hc         1 GT8       0.047033
     63 H24         -6.5180    -1.3850    -4.7390 hc         1 GT8       0.047033
     64 H25         -5.9210    -3.0250    -4.5010 hc         1 GT8       0.047033
     65 H26         -7.4720    -0.3490    -2.6810 ho         1 GT8       0.439000
     66 H27         -3.0680     0.5270    -1.3940 hn         1 GT8       0.309500
     67 H28         -0.3280    -1.4270    -2.5080 hc         1 GT8       0.052700
     68 H29         -0.9960     0.1660    -2.8360 hc         1 GT8       0.052700
     69 H30          0.5030     2.2210    -2.4720 ha         1 GT8       0.109500
     70 H31          2.7930     3.0920    -2.5760 ha         1 GT8       0.129000
     71 H32          6.9440     1.5170    -2.4990 h1         1 GT8       0.049033
     72 H33          6.1150     0.2910    -1.5250 h1         1 GT8       0.049033
     73 H34          6.0950     0.1900    -3.3060 h1         1 GT8       0.049033
     74 H35          4.3050    -0.9180    -2.2870 ha         1 GT8       0.129000
     75 H36          2.0330    -1.7600    -2.2090 ha         1 GT8       0.109500
     76 H37          0.3410    -1.7930     0.1790 hn         1 GT8       0.332500
     77 H38          2.3030    -1.6980     1.2450 h1         1 GT8       0.091700
     78 H39          0.5320    -1.7500     3.0010 hc         1 GT8       0.051033
     79 H40          2.1420    -1.6650     3.7190 hc         1 GT8       0.051033
     80 H41          1.1230    -0.2220     3.6550 hc         1 GT8       0.051033
     81 H42          3.0920     0.9250     2.3360 hn         1 GT8       0.323500
     82 H43          5.0090     1.6750     0.5930 h1         1 GT8       0.054700
     83 H44          5.2550     1.4340     2.3140 h1         1 GT8       0.054700
     84 H46          7.3490     0.2610     3.0180 h1         1 GT8       0.045450
     85 H47          6.7210    -1.1710     2.1930 h1         1 GT8       0.045450
     86 H48          9.1940    -1.2310     2.4110 h1         1 GT8       0.052200
     87 H49          8.6460    -1.2940     0.7270 h1         1 GT8       0.052200
     88 H50          9.5700     2.1610     0.2440 h1         1 GT8       0.052200
     89 H51          8.8760     0.7560    -0.5850 h1         1 GT8       0.052200
     90 H52          7.0970     2.3170    -0.0430 h1         1 GT8       0.045450
     91 H53          7.5860     2.3920     1.6530 h1         1 GT8       0.045450
     92 C7          -5.4130    -0.0030    -0.2210 c3         1 GT8      -0.093400
     93 C11         -6.6110    -2.2780    -4.1160 c3         1 GT8      -0.097100
     94 C10         -6.3850    -3.2380    -1.8180 c3         1 GT8      -0.097100
     95 C26          0.9920    -0.0160     0.9160 c          1 GT8       0.588100
@<TRIPOS>BOND
     1     1     2 1   
     2     1     8 1   
     3     1    40 1   
     4     1    41 1   
     5     2     3 1   
     6     2    42 1   
     7     2    43 1   
     8     3     7 1   
     9     3    44 1   
    10     3    45 1   
    11     4    10 1   
    12     4    14 1   
    13     4    48 1   
    14     4    92 1   
    15     5    15 1   
    16     5    17 1   
    17     5    26 1   
    18     5    52 1   
    19     6     7 1   
    20     6     8 1   
    21     6    53 1   
    22     6    54 1   
    23     7    55 1   
    24     7    56 1   
    25     8     9 1   
    26     8    57 1   
    27     9    58 1   
    28     9    59 1   
    29     9    92 1   
    30    10    11 1   
    31    10    12 1   
    32    10    60 1   
    33    11    61 1   
    34    12    13 1   
    35    12    93 1   
    36    12    94 1   
    37    13    65 1   
    38    14    15 1   
    39    14    66 1   
    40    15    16 2   
    41    17    18 1   
    42    17    67 1   
    43    17    68 1   
    44    18    19 ar  
    45    18    25 ar  
    46    19    20 ar  
    47    19    69 1   
    48    20    21 ar  
    49    20    70 1   
    50    21    22 1   
    51    21    24 ar  
    52    22    23 1   
    53    23    71 1   
    54    23    72 1   
    55    23    73 1   
    56    24    25 ar  
    57    24    74 1   
    58    25    75 1   
    59    26    76 1   
    60    26    95 1   
    61    27    95 2   
    62    28    29 1   
    63    28    30 1   
    64    28    77 1   
    65    28    95 1   
    66    29    78 1   
    67    29    79 1   
    68    29    80 1   
    69    30    31 1   
    70    30    81 1   
    71    31    32 2   
    72    31    33 1   
    73    33    34 1   
    74    33    82 1   
    75    33    83 1   
    76    34    35 1   
    77    34    39 1   
    78    35    36 1   
    79    35    84 1   
    80    35    85 1   
    81    36    37 1   
    82    36    86 1   
    83    36    87 1   
    84    37    38 1   
    85    38    39 1   
    86    38    88 1   
    87    38    89 1   
    88    39    90 1   
    89    39    91 1   
    90    46    92 1   
    91    47    92 1   
    92    49    94 1   
    93    50    94 1   
    94    51    94 1   
    95    62    93 1   
    96    63    93 1   
    97    64    93 1   
@<TRIPOS>SUBSTRUCTURE
     1 GT8         1 TEMP              0 ****  ****    0 ROOT
