@<TRIPOS>MOLECULE
GT8
   95    97     1     0     0
SMALL
No Charge or Current Charge


@<TRIPOS>ATOM
      1 C4          -7.2540     0.5780     2.4170 c6         1 GT8      -0.071900
      2 C5          -8.0620     1.5260     3.3390 c6         1 GT8      -0.072400
      3 C6          -7.2480     1.9230     4.5940 c6         1 GT8      -0.074400
      4 C8          -4.7880    -1.0330    -1.1630 c3         1 GT8       0.073700
      5 C24         -0.9860    -0.3110    -0.7130 c3         1 GT8       0.023700
      6 C2          -5.0820     1.6020     3.2820 c6         1 GT8      -0.071900
      7 C1          -5.8920     2.5520     4.1970 c6         1 GT8      -0.072400
      8 C3          -5.8830     1.1980     2.0110 c6         1 GT8      -0.058700
      9 C50         -5.0320     0.2540     1.1060 c3         1 GT8      -0.071400
     10 C9          -5.3460    -1.3000    -2.6100 c3         1 GT8       0.143300
     11 O21         -4.3410    -2.0470    -3.3210 oh         1 GT8      -0.649000
     12 C12         -6.7510    -2.0250    -2.7400 c3         1 GT8       0.195000
     13 O13         -7.7960    -1.1920    -2.2220 oh         1 GT8      -0.662000
     14 N22         -3.3960    -0.5370    -1.2370 ns         1 GT8      -0.516900
     15 C23         -2.3140    -1.1080    -0.5930 c          1 GT8       0.590100
     16 O49         -2.4080    -2.1650     0.0180 o          1 GT8      -0.589100
     17 C40         -0.4510    -0.3020    -2.1750 c3         1 GT8      -0.037100
     18 C41          0.9910     0.1910    -2.2850 ca         1 GT8      -0.133300
     19 C48          1.2770     1.5690    -2.2670 ca         1 GT8      -0.063000
     20 C47          2.6100     2.0140    -2.2890 ca         1 GT8      -0.165500
     21 C44          3.6690     1.0930    -2.3290 ca         1 GT8       0.141100
     22 O45          4.9570     1.5890    -2.3270 os         1 GT8      -0.349100
     23 C46          6.1110     0.7280    -2.3550 c3         1 GT8       0.133900
     24 C43          3.3860    -0.2890    -2.3620 ca         1 GT8      -0.165500
     25 C42          2.0530    -0.7340    -2.3440 ca         1 GT8      -0.063000
     26 N25          0.0420    -0.8420     0.2150 ns         1 GT8      -0.480900
     27 O39          0.8510     1.1560     0.9610 o          1 GT8      -0.608100
     28 C27          2.2070    -0.8280     1.4150 c3         1 GT8       0.033700
     29 C38          1.9210    -1.4770     2.7860 c3         1 GT8      -0.101100
     30 N28          3.3640     0.0880     1.5020 ns         1 GT8      -0.497900
     31 C29          4.6800    -0.2730     1.2980 c          1 GT8       0.605100
     32 O37          4.9970    -1.4370     1.0770 o          1 GT8      -0.588100
     33 C30          5.6860     0.9200     1.3520 c3         1 GT8       0.082800
     34 N31          7.1500     0.6600     1.1430 n3         1 GT8      -0.703600
     35 C36          7.7740    -0.1620     2.2290 c6         1 GT8       0.124300
     36 C35          9.2870    -0.4180     1.9590 c6         1 GT8       0.154100
     37 O34          9.9840     0.8370     1.7670 os         1 GT8      -0.450000
     38 C33          9.4430     1.6140     0.6720 c6         1 GT8       0.154100
     39 C32          7.9340     1.9140     0.9160 c6         1 GT8       0.124300
     40 H1          -7.0930    -0.3820     2.9280 hc         1 GT8       0.039700
     41 H2          -7.8580     0.3610     1.5270 hc         1 GT8       0.039700
     42 H3          -8.3450     2.4300     2.7820 hc         1 GT8       0.037700
     43 H4          -8.9990     1.0410     3.6420 hc         1 GT8       0.037700
     44 H5          -7.8250     2.6310     5.2040 hc         1 GT8       0.037700
     45 H6          -7.0770     1.0360     5.2200 hc         1 GT8       0.037700
     46 H7          -5.8140     0.8620    -0.8310 hc         1 GT8       0.055200
     47 H8          -6.6180    -0.5360    -0.1190 hc         1 GT8       0.055200
     48 H9          -4.7720    -1.9990    -0.6430 h1         1 GT8       0.097700
     49 H10         -6.6890    -3.1950    -0.8780 hc         1 GT8       0.047033
     50 H11         -7.7630    -3.8660    -2.1110 hc         1 GT8       0.047033
     51 H12         -6.0080    -4.0400    -2.2850 hc         1 GT8       0.047033
     52 H13         -1.2170     0.7220    -0.4230 h1         1 GT8       0.092700
     53 H14         -4.1410     2.0920     2.9940 hc         1 GT8       0.039700
     54 H15         -4.8010     0.7020     3.8470 hc         1 GT8       0.039700
     55 H16         -6.0640     3.5070     3.6800 hc         1 GT8       0.037700
     56 H17         -5.3120     2.7860     5.1000 hc         1 GT8       0.037700
     57 H18         -6.0720     2.1070     1.4220 hc         1 GT8       0.041700
     58 H19         -4.8400    -0.6880     1.6340 hc         1 GT8       0.042200
     59 H20         -4.0510     0.7210     0.9550 hc         1 GT8       0.042200
     60 H21         -5.4440    -0.3190    -3.0950 h1         1 GT8       0.016700
     61 H22         -3.4840    -1.7810    -2.9250 ho         1 GT8       0.448000
     62 H23         -8.1270    -2.6770    -4.3240 hc         1 GT8       0.047033
     63 H24         -7.0510    -1.3510    -4.8100 hc         1 GT8       0.047033
     64 H25         -6.4260    -3.0060    -4.6810 hc         1 GT8       0.047033
     65 H26         -7.9040    -0.4440    -2.8470 ho         1 GT8       0.439000
     66 H27         -3.2340     0.3560    -1.6920 hn         1 GT8       0.309500
     67 H28         -0.5210    -1.3190    -2.5810 hc         1 GT8       0.052700
     68 H29         -1.1100     0.3160    -2.7990 hc         1 GT8       0.052700
     69 H30          0.4680     2.2940    -2.2120 ha         1 GT8       0.109500
     70 H31          2.8250     3.0790    -2.2620 ha         1 GT8       0.129000
     71 H32          7.0320     1.3240    -2.3230 h1         1 GT8       0.049033
     72 H33          6.1160     0.0510    -1.4910 h1         1 GT8       0.049033
     73 H34          6.1270     0.1260    -3.2720 h1         1 GT8       0.049033
     74 H35          4.1810    -1.0280    -2.3930 ha         1 GT8       0.129000
     75 H36          1.8470    -1.8020    -2.3520 ha         1 GT8       0.109500
     76 H37          0.1900    -1.8450     0.2340 hn         1 GT8       0.332500
     77 H38          2.4390    -1.6190     0.6880 h1         1 GT8       0.091700
     78 H39          1.0770    -2.1730     2.7170 hc         1 GT8       0.051033
     79 H40          2.7960    -2.0360     3.1390 hc         1 GT8       0.051033
     80 H41          1.6760    -0.7130     3.5340 hc         1 GT8       0.051033
     81 H42          3.1760     1.0750     1.6460 hn         1 GT8       0.323500
     82 H43          5.3350     1.6260     0.5880 h1         1 GT8       0.054700
     83 H44          5.5340     1.4160     2.3200 h1         1 GT8       0.054700
     84 H46          7.6730     0.3480     3.1990 h1         1 GT8       0.045450
     85 H47          7.2700    -1.1330     2.3240 h1         1 GT8       0.045450
     86 H48          9.7340    -0.9530     2.8080 h1         1 GT8       0.052200
     87 H49          9.4070    -1.0410     1.0610 h1         1 GT8       0.052200
     88 H50         10.0030     2.5560     0.5860 h1         1 GT8       0.052200
     89 H51          9.5670     1.0550    -0.2670 h1         1 GT8       0.052200
     90 H52          7.5380     2.4600     0.0470 h1         1 GT8       0.045450
     91 H53          7.8450     2.5830     1.7850 h1         1 GT8       0.045450
     92 C7          -5.6410    -0.0740    -0.2850 c3         1 GT8      -0.093400
     93 C11         -7.1100    -2.2780    -4.2280 c3         1 GT8      -0.097100
     94 C10         -6.8030    -3.3610    -1.9560 c3         1 GT8      -0.097100
     95 C26          0.9750    -0.0600     0.8650 c          1 GT8       0.588100
@<TRIPOS>BOND
     1     1     2 1   
     2     1     8 1   
     3     1    40 1   
     4     1    41 1   
     5     2     3 1   
     6     2    42 1   
     7     2    43 1   
     8     3     7 1   
     9     3    44 1   
    10     3    45 1   
    11     4    10 1   
    12     4    14 1   
    13     4    48 1   
    14     4    92 1   
    15     5    15 1   
    16     5    17 1   
    17     5    26 1   
    18     5    52 1   
    19     6     7 1   
    20     6     8 1   
    21     6    53 1   
    22     6    54 1   
    23     7    55 1   
    24     7    56 1   
    25     8     9 1   
    26     8    57 1   
    27     9    58 1   
    28     9    59 1   
    29     9    92 1   
    30    10    11 1   
    31    10    12 1   
    32    10    60 1   
    33    11    61 1   
    34    12    13 1   
    35    12    93 1   
    36    12    94 1   
    37    13    65 1   
    38    14    15 1   
    39    14    66 1   
    40    15    16 2   
    41    17    18 1   
    42    17    67 1   
    43    17    68 1   
    44    18    19 ar  
    45    18    25 ar  
    46    19    20 ar  
    47    19    69 1   
    48    20    21 ar  
    49    20    70 1   
    50    21    22 1   
    51    21    24 ar  
    52    22    23 1   
    53    23    71 1   
    54    23    72 1   
    55    23    73 1   
    56    24    25 ar  
    57    24    74 1   
    58    25    75 1   
    59    26    76 1   
    60    26    95 1   
    61    27    95 2   
    62    28    29 1   
    63    28    30 1   
    64    28    77 1   
    65    28    95 1   
    66    29    78 1   
    67    29    79 1   
    68    29    80 1   
    69    30    31 1   
    70    30    81 1   
    71    31    32 2   
    72    31    33 1   
    73    33    34 1   
    74    33    82 1   
    75    33    83 1   
    76    34    35 1   
    77    34    39 1   
    78    35    36 1   
    79    35    84 1   
    80    35    85 1   
    81    36    37 1   
    82    36    86 1   
    83    36    87 1   
    84    37    38 1   
    85    38    39 1   
    86    38    88 1   
    87    38    89 1   
    88    39    90 1   
    89    39    91 1   
    90    46    92 1   
    91    47    92 1   
    92    49    94 1   
    93    50    94 1   
    94    51    94 1   
    95    62    93 1   
    96    63    93 1   
    97    64    93 1   
@<TRIPOS>SUBSTRUCTURE
     1 GT8         1 TEMP              0 ****  ****    0 ROOT
