@<TRIPOS>MOLECULE
GT9
   40    39     1     0     0
SMALL
bcc


@<TRIPOS>ATOM
      1 N           10.7690     7.2600    27.8530 n8         1 GT9      -0.887800
      2 CA           9.4250     6.8200    27.5240 c3         1 GT9       0.027500
      3 CB           9.4910     5.5530    26.6860 c3         1 GT9       0.057700
      4 SG          10.4430     4.2780    27.5690 ss         1 GT9      -0.311200
      5 C            8.5610     6.6330    28.8000 c          1 GT9       0.940600
      6 O            8.9830     7.1580    29.8480 o          1 GT9      -0.832800
      7 OXT          7.4870     6.0180    28.6490 o          1 GT9      -0.832800
      8 C1           9.6990     2.7630    26.8940 c3         1 GT9      -0.001300
      9 C2           8.2910     2.4500    27.3820 c3         1 GT9      -0.061400
     10 C3           8.1790     2.2500    28.8860 c3         1 GT9      -0.075400
     11 C4           6.7780     1.8320    29.3180 c3         1 GT9      -0.065400
     12 C5           6.5680     1.8450    30.8300 c3         1 GT9      -0.071400
     13 C6           7.5230     0.9560    31.6270 c3         1 GT9      -0.071400
     14 C7           7.5080    -0.5210    31.2400 c3         1 GT9      -0.072400
     15 C8           6.1550    -1.2000    31.4150 c3         1 GT9      -0.076400
     16 C9           6.2130    -2.6980    31.1510 c3         1 GT9      -0.087100
     17 H           10.7140     7.9150    28.6210 hn         1 GT9       0.329300
     18 H2          11.1820     7.7450    27.0670 hn         1 GT9       0.329300
     19 HA           8.8820     7.5610    26.9100 h1         1 GT9      -0.000300
     20 HB2          8.4860     5.1830    26.4920 h1         1 GT9       0.040200
     21 HB3          9.9670     5.7510    25.7230 h1         1 GT9       0.040200
     22 H11          9.7240     2.8160    25.8030 h1         1 GT9       0.040700
     23 H12         10.3800     1.9590    27.1830 h1         1 GT9       0.040700
     24 H21          7.6000     3.2360    27.0650 hc         1 GT9       0.032700
     25 H22          7.9620     1.5400    26.8680 hc         1 GT9       0.032700
     26 H31          8.9100     1.4990    29.2040 hc         1 GT9       0.056200
     27 H32          8.4540     3.1770    29.3960 hc         1 GT9       0.056200
     28 H41          6.0490     2.5110    28.8640 hc         1 GT9       0.029200
     29 H42          6.5520     0.8400    28.9120 hc         1 GT9       0.029200
     30 H51          6.6750     2.8740    31.1880 hc         1 GT9       0.040700
     31 H52          5.5350     1.5610    31.0480 hc         1 GT9       0.040700
     32 H61          8.5440     1.3360    31.5300 hc         1 GT9       0.036700
     33 H62          7.2740     1.0440    32.6890 hc         1 GT9       0.036700
     34 H71          7.8410    -0.6420    30.2030 hc         1 GT9       0.032200
     35 H72          8.2490    -1.0470    31.8500 hc         1 GT9       0.032200
     36 H81          5.7890    -1.0200    32.4320 hc         1 GT9       0.036700
     37 H82          5.4200    -0.7430    30.7460 hc         1 GT9       0.036700
     38 H91          5.2350    -3.1650    31.2720 hc         1 GT9       0.024700
     39 H92          6.5540    -2.9050    30.1350 hc         1 GT9       0.024700
     40 H93          6.9040    -3.1930    31.8360 hc         1 GT9       0.024700
@<TRIPOS>BOND
     1     1     2 1   
     2     1    17 1   
     3     1    18 1   
     4     2     3 1   
     5     2     5 1   
     6     2    19 1   
     7     3     4 1   
     8     3    20 1   
     9     3    21 1   
    10     4     8 1   
    11     5     6 1   
    12     5     7 1   
    13     8     9 1   
    14     8    22 1   
    15     8    23 1   
    16     9    10 1   
    17     9    24 1   
    18     9    25 1   
    19    10    11 1   
    20    10    26 1   
    21    10    27 1   
    22    11    12 1   
    23    11    28 1   
    24    11    29 1   
    25    12    13 1   
    26    12    30 1   
    27    12    31 1   
    28    13    14 1   
    29    13    32 1   
    30    13    33 1   
    31    14    15 1   
    32    14    34 1   
    33    14    35 1   
    34    15    16 1   
    35    15    36 1   
    36    15    37 1   
    37    16    38 1   
    38    16    39 1   
    39    16    40 1   
@<TRIPOS>SUBSTRUCTURE
     1 GT9         1 TEMP              0 ****  ****    0 ROOT
