@<TRIPOS>MOLECULE
GT9
   40    39     1     0     0
SMALL
No Charge or Current Charge


@<TRIPOS>ATOM
      1 N           10.8900     7.5810    26.7520 n8         1 GT9      -0.887800
      2 CA           9.5040     7.1910    27.2320 c3         1 GT9       0.027500
      3 CB           9.2390     5.6790    27.0080 c3         1 GT9       0.057700
      4 SG          10.2800     4.6020    28.1000 ss         1 GT9      -0.311200
      5 C            9.0510     7.6220    28.7000 c          1 GT9       0.940600
      6 O            9.8750     8.1130    29.4700 o          1 GT9      -0.832800
      7 OXT          7.8560     7.5680    28.9800 o          1 GT9      -0.832800
      8 C1           9.9080     2.9340    27.3890 c3         1 GT9      -0.001300
      9 C2           8.4700     2.4610    27.7000 c3         1 GT9      -0.061400
     10 C3           8.1850     2.2620    29.2070 c3         1 GT9      -0.075400
     11 C4           6.7610     1.7230    29.4830 c3         1 GT9      -0.065400
     12 C5           6.4090     1.5840    30.9850 c3         1 GT9      -0.071400
     13 C6           7.3080     0.6210    31.8060 c3         1 GT9      -0.071400
     14 C7           7.3930    -0.8360    31.2860 c3         1 GT9      -0.072400
     15 C8           6.0390    -1.5820    31.2500 c3         1 GT9      -0.076400
     16 C9           6.1740    -3.0510    30.8030 c3         1 GT9      -0.087100
     17 H           11.0050     8.5960    26.8380 hn         1 GT9       0.329300
     18 H2          10.9720     7.3910    25.7490 hn         1 GT9       0.329300
     19 HA           8.8210     7.7240    26.5570 h1         1 GT9      -0.000300
     20 HB2          8.1810     5.4630    27.2060 h1         1 GT9       0.040200
     21 HB3          9.4440     5.4230    25.9610 h1         1 GT9       0.040200
     22 H11         10.0540     2.9750    26.3020 h1         1 GT9       0.040700
     23 H12         10.6240     2.2110    27.8000 h1         1 GT9       0.040700
     24 H21          7.7490     3.1720    27.2800 hc         1 GT9       0.032700
     25 H22          8.3040     1.5080    27.1820 hc         1 GT9       0.032700
     26 H31          8.9270     1.5650    29.6160 hc         1 GT9       0.056200
     27 H32          8.3120     3.2140    29.7350 hc         1 GT9       0.056200
     28 H41          6.0340     2.4030    29.0240 hc         1 GT9       0.029200
     29 H42          6.6330     0.7550    28.9830 hc         1 GT9       0.029200
     30 H51          6.4530     2.5770    31.4480 hc         1 GT9       0.040700
     31 H52          5.3640     1.2600    31.0720 hc         1 GT9       0.040700
     32 H61          8.3220     1.0340    31.8580 hc         1 GT9       0.036700
     33 H62          6.9400     0.6020    32.8400 hc         1 GT9       0.036700
     34 H71          7.8410    -0.8440    30.2850 hc         1 GT9       0.032200
     35 H72          8.0820    -1.3900    31.9340 hc         1 GT9       0.032200
     36 H81          5.5800    -1.5530    32.2460 hc         1 GT9       0.036700
     37 H82          5.3520    -1.0720    30.5640 hc         1 GT9       0.036700
     38 H91          5.1920    -3.5380    30.7900 hc         1 GT9       0.024700
     39 H92          6.6010    -3.1110    29.7940 hc         1 GT9       0.024700
     40 H93          6.8250    -3.6070    31.4890 hc         1 GT9       0.024700
@<TRIPOS>BOND
     1     1     2 1   
     2     1    17 1   
     3     1    18 1   
     4     2     3 1   
     5     2     5 1   
     6     2    19 1   
     7     3     4 1   
     8     3    20 1   
     9     3    21 1   
    10     4     8 1   
    11     5     6 1   
    12     5     7 1   
    13     8     9 1   
    14     8    22 1   
    15     8    23 1   
    16     9    10 1   
    17     9    24 1   
    18     9    25 1   
    19    10    11 1   
    20    10    26 1   
    21    10    27 1   
    22    11    12 1   
    23    11    28 1   
    24    11    29 1   
    25    12    13 1   
    26    12    30 1   
    27    12    31 1   
    28    13    14 1   
    29    13    32 1   
    30    13    33 1   
    31    14    15 1   
    32    14    34 1   
    33    14    35 1   
    34    15    16 1   
    35    15    36 1   
    36    15    37 1   
    37    16    38 1   
    38    16    39 1   
    39    16    40 1   
@<TRIPOS>SUBSTRUCTURE
     1 GT9         1 TEMP              0 ****  ****    0 ROOT
