@<TRIPOS>MOLECULE
GTA
   78    83     1     0     0
SMALL
abcg2


@<TRIPOS>ATOM
      1 N2          -5.7590     3.4320     0.6790 nv         1 GTA      -1.062200
      2 C6          -2.5270     2.8360    -0.8590 c          1 GTA       0.649600
      3 C5          -2.7170     1.4390    -1.0470 cc         1 GTA      -0.315600
      4 N7          -1.9210     0.4490    -1.5790 na         1 GTA       0.079300
      5 C7          -0.5420     0.5840    -2.0060 c3         1 GTA       0.032900
      6 C8          -2.5620    -0.6900    -1.4840 cc         1 GTA       0.024700
      7 N9          -3.7760    -0.4830    -0.9500 na         1 GTA       0.022000
      8 C4          -3.8910     0.8470    -0.6450 cd         1 GTA       0.221400
      9 N3          -4.9400     1.4290    -0.0710 nd         1 GTA      -0.684100
     10 C2          -4.7840     2.7210     0.1190 cc         1 GTA       0.745800
     11 N1          -3.6530     3.3920    -0.2520 ns         1 GTA      -0.446400
     12 O3A         -6.9880    -3.3780    -0.6310 oh         1 GTA      -0.706000
     13 C1A         -4.7590    -1.5140    -0.6770 c5         1 GTA       0.328300
     14 C2A         -5.4190    -2.0760    -1.9340 c5         1 GTA       0.059300
     15 C3A         -5.8410    -3.4620    -1.4350 c5         1 GTA       0.102300
     16 C4A         -4.6480    -3.8320    -0.5600 c5         1 GTA       0.134300
     17 C5A         -3.6000    -4.6060    -1.3460 c3         1 GTA       0.227600
     18 O4A         -4.1270    -2.5920    -0.0670 os         1 GTA      -0.373000
     19 O2A         -6.4590    -1.2440    -2.3450 oh         1 GTA      -0.709000
     20 O11          0.0580    -5.0000    -0.5360 o          1 GTA      -0.847000
     21 O12         -1.1330    -3.1650    -1.9480 o          1 GTA      -0.847000
     22 O13         -1.2320    -3.1240     0.6330 os         1 GTA      -0.704800
     23 O15         -2.4520    -4.8970    -0.5860 os         1 GTA      -0.568400
     24 P2          -0.4230    -1.7380     1.0260 p5         1 GTA       1.526800
     25 O22         -1.4450    -0.6580     1.1750 o          1 GTA      -0.879000
     26 O21          0.7840    -1.5920     0.1660 o          1 GTA      -0.879000
     27 O23          0.0010    -2.2800     2.5340 os         1 GTA      -0.680800
     28 P3           0.9700    -1.5320     3.6060 p5         1 GTA       1.466800
     29 O32          0.6150    -2.0780     4.9550 o          1 GTA      -0.866000
     30 O31          1.0010    -0.0480     3.3860 o          1 GTA      -0.866000
     31 O33          2.3990    -2.1890     3.1200 os         1 GTA      -0.563400
     32 C5B          3.6000    -1.5440     3.4630 c3         1 GTA       0.222600
     33 C4B          4.6210    -1.7380     2.3540 c5         1 GTA       0.154300
     34 O4B          4.1020    -1.3230     1.0900 os         1 GTA      -0.372000
     35 C3B          5.8640    -0.8910     2.5870 c5         1 GTA       0.097300
     36 O3B          6.9610    -1.4970     1.9540 oh         1 GTA      -0.712000
     37 C2B          5.4680     0.4040     1.8710 c5         1 GTA       0.061300
     38 O2B          6.5400     1.1960     1.4510 oh         1 GTA      -0.708000
     39 C1B          4.7120    -0.1450     0.6600 c5         1 GTA       0.327300
     40 N9C          3.7110     0.7560     0.1420 na         1 GTA      -0.282300
     41 C8C          2.4940     1.0540     0.6970 cc         1 GTA       0.508700
     42 N7C          1.8250     1.9330     0.0090 nd         1 GTA      -0.590100
     43 C5C          2.6280     2.2210    -1.0630 ca         1 GTA      -0.074600
     44 C6C          2.4570     3.0410    -2.1900 ca         1 GTA       0.413900
     45 N6C          1.3490     3.7680    -2.3920 nv         1 GTA      -1.076900
     46 N1C          3.4520     3.0980    -3.0820 nb         1 GTA      -0.330000
     47 C2C          4.5440     2.3650    -2.8800 ca         1 GTA       0.135900
     48 N3C          4.8070     1.5390    -1.8820 nb         1 GTA      -0.203000
     49 C4C          3.8110     1.5000    -0.9990 ca         1 GTA       0.109500
     50 HN21        -6.5700     2.9510     1.0280 hn         1 GTA       0.504500
     51 HN22        -5.6400     4.3960     0.9380 hn         1 GTA       0.504500
     52 H71         -0.4840     1.2740    -2.8440 h1         1 GTA       0.099033
     53 H72          0.0540     0.9430    -1.1730 h1         1 GTA       0.099033
     54 H73         -0.1790    -0.3940    -2.2990 h1         1 GTA       0.099033
     55 H8          -2.1390    -1.6580    -1.7760 h5         1 GTA       0.308000
     56 HN1         -3.6050     4.3880    -0.0780 hn         1 GTA       0.318500
     57 HO3A        -7.6450    -2.8530    -1.1020 ho         1 GTA       0.500000
     58 H1A         -5.5060    -1.0450    -0.0270 h2         1 GTA       0.108700
     59 H2A         -4.6590    -2.1960    -2.7170 h1         1 GTA       0.067700
     60 H3A         -5.9740    -4.1710    -2.2630 h1         1 GTA       0.046700
     61 H4A         -4.9670    -4.4290     0.2990 h1         1 GTA       0.105700
     62 H5A1        -4.0550    -5.5570    -1.6390 h1         1 GTA       0.013700
     63 H5A2        -3.3400    -4.0790    -2.2690 h1         1 GTA       0.013700
     64 HO2A        -6.6740    -1.4440    -3.2620 ho         1 GTA       0.501000
     65 H5B1         3.4380    -0.4760     3.6480 h1         1 GTA       0.005700
     66 H5B2         4.0220    -1.9660     4.3830 h1         1 GTA       0.005700
     67 H4B          4.8770    -2.8000     2.2810 h1         1 GTA       0.097700
     68 H3B          6.0530    -0.7270     3.6570 h1         1 GTA       0.041700
     69 HO3B         7.6200    -0.8120     1.7870 ho         1 GTA       0.498000
     70 H2B          4.7760     0.9720     2.5060 h1         1 GTA       0.070700
     71 HO2B         6.8060     1.7670     2.1780 ho         1 GTA       0.493000
     72 H1B          5.4120    -0.3260    -0.1640 h2         1 GTA       0.093700
     73 H8C          2.1370     0.5740     1.5980 h5         1 GTA       0.150800
     74 HN61         0.5180     3.5910    -1.8490 hn         1 GTA       0.494000
     75 HN62         1.2260     4.2230    -3.2810 hn         1 GTA       0.494000
     76 H2C          5.3140     2.4560    -3.6390 h5         1 GTA       0.017100
     77 P1          -1.0600    -4.0260    -0.7120 p5         1 GTA       1.489800
     78 O6          -1.5650     3.5270    -1.1490 o          1 GTA      -0.544000
@<TRIPOS>BOND
     1     1    10 1   
     2     1    50 1   
     3     1    51 1   
     4     2     3 1   
     5     2    11 1   
     6     2    78 2   
     7     3     4 1   
     8     3     8 2   
     9     4     5 1   
    10     4     6 2   
    11     5    52 1   
    12     5    53 1   
    13     5    54 1   
    14     6     7 1   
    15     6    55 1   
    16     7     8 1   
    17     7    13 1   
    18     8     9 1   
    19     9    10 2   
    20    10    11 1   
    21    11    56 1   
    22    12    15 1   
    23    12    57 1   
    24    13    14 1   
    25    13    18 1   
    26    13    58 1   
    27    14    15 1   
    28    14    19 1   
    29    14    59 1   
    30    15    16 1   
    31    15    60 1   
    32    16    17 1   
    33    16    18 1   
    34    16    61 1   
    35    17    23 1   
    36    17    62 1   
    37    17    63 1   
    38    19    64 1   
    39    20    77 1   
    40    21    77 1   
    41    22    24 1   
    42    22    77 1   
    43    23    77 1   
    44    24    25 1   
    45    24    26 1   
    46    24    27 1   
    47    27    28 1   
    48    28    29 1   
    49    28    30 1   
    50    28    31 1   
    51    31    32 1   
    52    32    33 1   
    53    32    65 1   
    54    32    66 1   
    55    33    34 1   
    56    33    35 1   
    57    33    67 1   
    58    34    39 1   
    59    35    36 1   
    60    35    37 1   
    61    35    68 1   
    62    36    69 1   
    63    37    38 1   
    64    37    39 1   
    65    37    70 1   
    66    38    71 1   
    67    39    40 1   
    68    39    72 1   
    69    40    41 1   
    70    40    49 1   
    71    41    42 2   
    72    41    73 1   
    73    42    43 1   
    74    43    44 ar  
    75    43    49 ar  
    76    44    45 1   
    77    44    46 ar  
    78    45    74 1   
    79    45    75 1   
    80    46    47 ar  
    81    47    48 ar  
    82    47    76 1   
    83    48    49 ar  
@<TRIPOS>SUBSTRUCTURE
     1 GTA         1 TEMP              0 ****  ****    0 ROOT
