@<TRIPOS>MOLECULE
GTA
   78    83     1     0     0
SMALL
No Charge or Current Charge


@<TRIPOS>ATOM
      1 N2          -5.4010     3.4580     0.5390 nv         1 GTA      -1.062200
      2 C6          -2.2410     2.8690    -0.9130 c          1 GTA       0.649600
      3 C5          -2.4450     1.4470    -1.1590 cc         1 GTA      -0.315600
      4 N7          -1.6090     0.4770    -1.7230 na         1 GTA       0.079300
      5 C7          -0.2230     0.6810    -2.1670 c3         1 GTA       0.032900
      6 C8          -2.3000    -0.7280    -1.7640 cc         1 GTA       0.024700
      7 N9          -3.5210    -0.5070    -1.1740 na         1 GTA       0.022000
      8 C4          -3.6150     0.8140    -0.8160 cd         1 GTA       0.221400
      9 N3          -4.6830     1.4860    -0.2300 nd         1 GTA      -0.684100
     10 C2          -4.4340     2.7550    -0.0230 cc         1 GTA       0.745800
     11 N1          -3.3140     3.4340    -0.3270 ns         1 GTA      -0.446400
     12 O3A         -7.1170    -2.8820    -1.2920 oh         1 GTA      -0.706000
     13 C1A         -4.5960    -1.4930    -1.0110 c5         1 GTA       0.328300
     14 C2A         -4.8550    -2.5010    -2.1730 c5         1 GTA       0.059300
     15 C3A         -5.8150    -3.4680    -1.4210 c5         1 GTA       0.102300
     16 C4A         -5.0650    -3.5980    -0.0470 c5         1 GTA       0.134300
     17 C5A         -4.1390    -4.8630     0.0140 c3         1 GTA       0.227600
     18 O4A         -4.3470    -2.3440     0.1300 os         1 GTA      -0.373000
     19 O2A         -5.4740    -1.9240    -3.3400 oh         1 GTA      -0.709000
     20 O11         -0.5180    -4.8560     0.9910 o          1 GTA      -0.847000
     21 O12         -1.6530    -3.6930    -0.8910 o          1 GTA      -0.847000
     22 O13         -1.8930    -2.7460     1.4970 os         1 GTA      -0.704800
     23 O15         -3.0390    -4.7620     0.9430 os         1 GTA      -0.568400
     24 P2          -0.7160    -1.7000     1.5520 p5         1 GTA       1.526800
     25 O22         -1.3240    -0.4080     1.9910 o          1 GTA      -0.879000
     26 O21          0.0030    -1.5560     0.2540 o          1 GTA      -0.879000
     27 O23          0.1090    -2.3750     2.7150 os         1 GTA      -0.680800
     28 P3           1.5350    -1.7280     2.9060 p5         1 GTA       1.466800
     29 O32          1.9990    -2.0500     4.2900 o          1 GTA      -0.866000
     30 O31          1.6120    -0.2570     2.6790 o          1 GTA      -0.866000
     31 O33          2.3650    -2.5960     1.8270 os         1 GTA      -0.563400
     32 C5B          3.7540    -2.9280     2.0110 c3         1 GTA       0.222600
     33 C4B          4.7200    -1.8100     1.4850 c5         1 GTA       0.154300
     34 O4B          4.0360    -0.8620     0.6250 os         1 GTA      -0.372000
     35 C3B          5.4640    -0.9580     2.5830 c5         1 GTA       0.097300
     36 O3B          6.8710    -0.8720     2.3380 oh         1 GTA      -0.712000
     37 C2B          4.8470     0.4580     2.3920 c5         1 GTA       0.061300
     38 O2B          5.7470     1.4960     2.8380 oh         1 GTA      -0.708000
     39 C1B          4.5960     0.4380     0.8480 c5         1 GTA       0.327300
     40 N9C          3.6990     1.4390     0.2730 na         1 GTA      -0.282300
     41 C8C          2.6810     2.1180     0.9540 cc         1 GTA       0.508700
     42 N7C          1.9970     2.9350     0.1230 nd         1 GTA      -0.590100
     43 C5C          2.6240     2.7390    -1.1110 ca         1 GTA      -0.074600
     44 C6C          2.3320     3.3100    -2.3690 ca         1 GTA       0.413900
     45 N6C          1.2960     4.1640    -2.5750 nv         1 GTA      -1.076900
     46 N1C          3.0520     2.9940    -3.4570 nb         1 GTA      -0.330000
     47 C2C          4.0610     2.1080    -3.2680 ca         1 GTA       0.135900
     48 N3C          4.4050     1.5060    -2.1040 nb         1 GTA      -0.203000
     49 C4C          3.6600     1.8420    -1.0310 ca         1 GTA       0.109500
     50 HN21        -6.1430     2.8760     0.9060 hn         1 GTA       0.504500
     51 HN22        -5.1190     4.2180     1.1440 hn         1 GTA       0.504500
     52 H71         -0.1900     1.4730    -2.9240 h1         1 GTA       0.099033
     53 H72          0.3900     0.9720    -1.3070 h1         1 GTA       0.099033
     54 H73          0.1780    -0.2460    -2.5920 h1         1 GTA       0.099033
     55 H8          -1.9120    -1.6730    -2.1240 h5         1 GTA       0.308000
     56 HN1         -3.2650     4.4210    -0.1460 hn         1 GTA       0.318500
     57 HO3A        -7.2480    -2.3710    -2.1270 ho         1 GTA       0.500000
     58 H1A         -5.5070    -0.9100    -0.8300 h2         1 GTA       0.108700
     59 H2A         -3.9220    -3.0170    -2.4450 h1         1 GTA       0.067700
     60 H3A         -5.8880    -4.4380    -1.9340 h1         1 GTA       0.046700
     61 H4A         -5.7890    -3.6930     0.7730 h1         1 GTA       0.105700
     62 H5A1        -4.7660    -5.7220     0.2860 h1         1 GTA       0.013700
     63 H5A2        -3.7610    -5.0750    -0.9940 h1         1 GTA       0.013700
     64 HO2A        -5.3110    -2.5310    -4.1020 ho         1 GTA       0.501000
     65 H5B1         3.9800    -3.1440     3.0620 h1         1 GTA       0.005700
     66 H5B2         3.9740    -3.8470     1.4530 h1         1 GTA       0.005700
     67 H4B          5.4760    -2.3230     0.8740 h1         1 GTA       0.097700
     68 H3B          5.2750    -1.3390     3.5970 h1         1 GTA       0.041700
     69 HO3B         7.0690     0.0860     2.5030 ho         1 GTA       0.498000
     70 H2B          3.9000     0.5230     2.9380 h1         1 GTA       0.070700
     71 HO2B         5.4850     1.7470     3.7560 ho         1 GTA       0.493000
     72 H1B          5.5500     0.5250     0.3110 h2         1 GTA       0.093700
     73 H8C          2.4920     1.9880     2.0140 h5         1 GTA       0.150800
     74 HN61         0.5270     4.0950    -1.9040 hn         1 GTA       0.494000
     75 HN62         1.0190     4.3390    -3.5360 hn         1 GTA       0.494000
     76 H2C          4.6520     1.8470    -4.1440 h5         1 GTA       0.017100
     77 P1          -1.6640    -3.9970     0.5710 p5         1 GTA       1.489800
     78 O6          -1.2410     3.5050    -1.2030 o          1 GTA      -0.544000
@<TRIPOS>BOND
     1     1    10 1   
     2     1    50 1   
     3     1    51 1   
     4     2     3 1   
     5     2    11 1   
     6     2    78 2   
     7     3     4 1   
     8     3     8 2   
     9     4     5 1   
    10     4     6 2   
    11     5    52 1   
    12     5    53 1   
    13     5    54 1   
    14     6     7 1   
    15     6    55 1   
    16     7     8 1   
    17     7    13 1   
    18     8     9 1   
    19     9    10 2   
    20    10    11 1   
    21    11    56 1   
    22    12    15 1   
    23    12    57 1   
    24    13    14 1   
    25    13    18 1   
    26    13    58 1   
    27    14    15 1   
    28    14    19 1   
    29    14    59 1   
    30    15    16 1   
    31    15    60 1   
    32    16    17 1   
    33    16    18 1   
    34    16    61 1   
    35    17    23 1   
    36    17    62 1   
    37    17    63 1   
    38    19    64 1   
    39    20    77 1   
    40    21    77 1   
    41    22    24 1   
    42    22    77 1   
    43    23    77 1   
    44    24    25 1   
    45    24    26 1   
    46    24    27 1   
    47    27    28 1   
    48    28    29 1   
    49    28    30 1   
    50    28    31 1   
    51    31    32 1   
    52    32    33 1   
    53    32    65 1   
    54    32    66 1   
    55    33    34 1   
    56    33    35 1   
    57    33    67 1   
    58    34    39 1   
    59    35    36 1   
    60    35    37 1   
    61    35    68 1   
    62    36    69 1   
    63    37    38 1   
    64    37    39 1   
    65    37    70 1   
    66    38    71 1   
    67    39    40 1   
    68    39    72 1   
    69    40    41 1   
    70    40    49 1   
    71    41    42 2   
    72    41    73 1   
    73    42    43 1   
    74    43    44 ar  
    75    43    49 ar  
    76    44    45 1   
    77    44    46 ar  
    78    45    74 1   
    79    45    75 1   
    80    46    47 ar  
    81    47    48 ar  
    82    47    76 1   
    83    48    49 ar  
@<TRIPOS>SUBSTRUCTURE
     1 GTA         1 TEMP              0 ****  ****    0 ROOT
