@<TRIPOS>MOLECULE
GTB
   50    50     1     0     0
SMALL
No Charge or Current Charge


@<TRIPOS>ATOM
      1 N1          -3.6040     4.9020     0.3470 n8         1 GTB      -1.000200
      2 CA1         -2.4590     4.2190     1.0530 c3         1 GTB       0.011500
      3 C1          -1.1710     5.1080     1.3110 c          1 GTB       0.694000
      4 O11         -0.7020     5.7410     0.3730 o          1 GTB      -0.738500
      5 O12         -0.7640     5.2200     2.4590 o          1 GTB      -0.738500
      6 CB1         -2.0650     2.9030     0.3290 c3         1 GTB      -0.043400
      7 CG1         -3.1850     1.8300     0.2920 c3         1 GTB      -0.149400
      8 CD1         -2.6850     0.5300    -0.3430 c          1 GTB       0.602100
      9 OE1         -2.5180     0.4090    -1.5490 o          1 GTB      -0.598100
     10 N2          -2.4880    -0.5080     0.5410 ns         1 GTB      -0.507900
     11 CA2         -1.9480    -1.8440     0.1860 c3         1 GTB       0.047700
     12 C2          -2.7990    -2.9700     0.8400 c          1 GTB       0.584100
     13 O2          -3.5830    -2.7730     1.7640 o          1 GTB      -0.643100
     14 CB2         -0.4650    -1.9770     0.6130 c3         1 GTB       0.054600
     15 SG2          0.6210    -0.7280    -0.2250 ss         1 GTB      -0.413000
     16 N3          -2.6180    -4.2290     0.3040 ns         1 GTB      -0.457900
     17 CA3         -3.3040    -5.4570     0.7710 c3         1 GTB      -0.054000
     18 C3          -3.0040    -6.6860    -0.1350 c          1 GTB       0.714000
     19 O31         -1.9790    -6.6840    -0.8040 o          1 GTB      -0.734000
     20 O32         -3.8290    -7.5870    -0.1710 o          1 GTB      -0.734000
     21 C            2.2350    -1.1050     0.5950 c3         1 GTB       0.081900
     22 C7           3.3330    -0.1880     0.0760 ca         1 GTB      -0.008300
     23 C8           3.5400     1.0730     0.6640 ca         1 GTB      -0.110000
     24 C9           4.5530     1.9240     0.1880 ca         1 GTB      -0.046500
     25 C4           5.3780     1.5220    -0.8890 ca         1 GTB      -0.187200
     26 N41          6.4590     2.4260    -1.3990 no         1 GTB       0.697200
     27 O41          6.6120     3.5260    -0.8500 o          1 GTB      -0.412000
     28 O42          7.1550     2.0320    -2.3450 o          1 GTB      -0.412000
     29 C5           5.1630     0.2540    -1.4790 ca         1 GTB      -0.046500
     30 C6           4.1480    -0.5910    -0.9970 ca         1 GTB      -0.110000
     31 HN11        -3.8800     5.7330     0.8850 hn         1 GTB       0.380500
     32 HN12        -3.2470     5.3030    -0.5300 hn         1 GTB       0.380500
     33 HA1         -2.8360     3.9360     2.0460 h1         1 GTB       0.027700
     34 HB11        -1.7390     3.1300    -0.6940 hc         1 GTB       0.054700
     35 HB12        -1.1950     2.4740     0.8420 hc         1 GTB       0.054700
     36 HG11        -3.5170     1.6420     1.3200 hc         1 GTB       0.054200
     37 HG12        -4.0210     2.2110    -0.3050 hc         1 GTB       0.054200
     38 HN2         -2.7110    -0.3260     1.5130 hn         1 GTB       0.312500
     39 HA2         -2.0140    -1.9850    -0.9010 h1         1 GTB       0.081700
     40 HB21        -0.3860    -1.8450     1.7010 h1         1 GTB       0.071700
     41 HB22        -0.0950    -2.9810     0.3670 h1         1 GTB       0.071700
     42 HN3         -1.9580    -4.3200    -0.4620 hn         1 GTB       0.341500
     43 HA31        -2.9730    -5.6890     1.7910 h1         1 GTB       0.034700
     44 HA32        -4.3870    -5.2820     0.7800 h1         1 GTB       0.034700
     45 H'1          2.1270    -0.9770     1.6800 h1         1 GTB       0.070200
     46 H'2          2.5020    -2.1520     0.4030 h1         1 GTB       0.070200
     47 H2           2.9120     1.3970     1.4910 ha         1 GTB       0.134500
     48 H3           4.6900     2.8950     0.6640 ha         1 GTB       0.146500
     49 H5           5.7780    -0.0860    -2.3110 ha         1 GTB       0.146500
     50 H6           3.9930    -1.5620    -1.4630 ha         1 GTB       0.134500
@<TRIPOS>BOND
     1     1     2 1   
     2     1    31 1   
     3     1    32 1   
     4     2     3 1   
     5     2     6 1   
     6     2    33 1   
     7     3     4 1   
     8     3     5 1   
     9     6     7 1   
    10     6    34 1   
    11     6    35 1   
    12     7     8 1   
    13     7    36 1   
    14     7    37 1   
    15     8     9 2   
    16     8    10 1   
    17    10    11 1   
    18    10    38 1   
    19    11    12 1   
    20    11    14 1   
    21    11    39 1   
    22    12    13 2   
    23    12    16 1   
    24    14    15 1   
    25    14    40 1   
    26    14    41 1   
    27    15    21 1   
    28    16    17 1   
    29    16    42 1   
    30    17    18 1   
    31    17    43 1   
    32    17    44 1   
    33    18    19 1   
    34    18    20 1   
    35    21    22 1   
    36    21    45 1   
    37    21    46 1   
    38    22    23 ar  
    39    22    30 ar  
    40    23    24 ar  
    41    23    47 1   
    42    24    25 ar  
    43    24    48 1   
    44    25    26 1   
    45    25    29 ar  
    46    26    27 1   
    47    26    28 1   
    48    29    30 ar  
    49    29    49 1   
    50    30    50 1   
@<TRIPOS>SUBSTRUCTURE
     1 GTB         1 TEMP              0 ****  ****    0 ROOT
