@<TRIPOS>MOLECULE
GTB
   50    50     1     0     0
SMALL
bcc


@<TRIPOS>ATOM
      1 N1          -4.5220     4.2070     1.5500 n8         1 GTB      -0.889800
      2 CA1         -3.5870     4.3470     0.4440 c3         1 GTB       0.011500
      3 C1          -4.0150     5.3460    -0.6600 c          1 GTB       0.904600
      4 O11         -5.2080     5.7080    -0.6760 o          1 GTB      -0.843800
      5 O12         -3.1250     5.6880    -1.4670 o          1 GTB      -0.843800
      6 CB1         -3.3320     2.9810    -0.2000 c3         1 GTB      -0.043400
      7 CG1         -2.7640     1.9680     0.7870 c3         1 GTB      -0.149400
      8 CD1         -2.6140     0.5890     0.1940 c          1 GTB       0.669100
      9 OE1         -3.4580     0.0800    -0.5320 o          1 GTB      -0.598100
     10 N2          -1.4860    -0.0680     0.5240 ns         1 GTB      -0.574900
     11 CA2         -1.2550    -1.4210     0.0990 c3         1 GTB       0.047700
     12 C2          -2.3240    -2.3660     0.6630 c          1 GTB       0.651100
     13 O2          -2.7900    -2.2050     1.7810 o          1 GTB      -0.643100
     14 CB2          0.1050    -1.9010     0.5930 c3         1 GTB       0.006700
     15 SG2          1.4250    -0.8550    -0.0890 ss         1 GTB      -0.317200
     16 N3          -2.6320    -3.3850    -0.1370 ns         1 GTB      -0.524900
     17 CA3         -3.5340    -4.4500     0.2180 c3         1 GTB      -0.054000
     18 C3          -3.6360    -5.4860    -0.9200 c          1 GTB       0.924600
     19 O31         -2.9800    -5.2580    -1.9550 o          1 GTB      -0.839300
     20 O32         -4.3760    -6.4560    -0.6890 o          1 GTB      -0.839300
     21 C            2.8470    -1.5960     0.7740 c3         1 GTB       0.034000
     22 C7           4.0630    -0.7840     0.4550 ca         1 GTB      -0.008300
     23 C8           4.2930     0.4220     1.1130 ca         1 GTB      -0.128000
     24 C9           5.4050     1.1890     0.8210 ca         1 GTB      -0.064500
     25 C4           6.2900     0.7400    -0.1500 ca         1 GTB      -0.187200
     26 N41          7.4660     1.5370    -0.4600 no         1 GTB       0.317200
     27 O41          7.6400     2.5590     0.1610 o          1 GTB      -0.222000
     28 O42          8.2120     1.1380    -1.3230 o          1 GTB      -0.222000
     29 C5           6.0810    -0.4510    -0.8290 ca         1 GTB      -0.064500
     30 C6           4.9620    -1.2050    -0.5210 ca         1 GTB      -0.128000
     31 HN11        -4.5320     5.0710     2.0790 hn         1 GTB       0.325300
     32 HN12        -5.4540     4.1440     1.1550 hn         1 GTB       0.325300
     33 HA1         -2.6350     4.6990     0.8590 h1         1 GTB       0.027700
     34 HB11        -4.2690     2.6010    -0.6180 hc         1 GTB       0.054700
     35 HB12        -2.6420     3.1060    -1.0370 hc         1 GTB       0.054700
     36 HG11        -1.8070     2.3250     1.1770 hc         1 GTB       0.054200
     37 HG12        -3.4380     1.8930     1.6450 hc         1 GTB       0.054200
     38 HN2         -0.8290     0.3650     1.1530 hn         1 GTB       0.312500
     39 HA2         -1.2700    -1.4720    -0.9950 h1         1 GTB       0.081700
     40 HB21         0.1480    -1.8670     1.6840 h1         1 GTB       0.071700
     41 HB22         0.2610    -2.9330     0.2770 h1         1 GTB       0.071700
     42 HN3         -2.2370    -3.4570    -1.0650 hn         1 GTB       0.341500
     43 HA31        -3.1970    -4.9520     1.1310 h1         1 GTB       0.034700
     44 HA32        -4.5330    -4.0580     0.4310 h1         1 GTB       0.034700
     45 H'1          2.6480    -1.5870     1.8470 h1         1 GTB       0.070200
     46 H'2          2.9720    -2.6310     0.4550 h1         1 GTB       0.070200
     47 H2           3.5980     0.7670     1.8680 ha         1 GTB       0.152500
     48 H3           5.5710     2.1180     1.3450 ha         1 GTB       0.164500
     49 H5           6.7720    -0.7970    -1.5840 ha         1 GTB       0.164500
     50 H6           4.7940    -2.1380    -1.0420 ha         1 GTB       0.152500
@<TRIPOS>BOND
     1     1     2 1   
     2     1    31 1   
     3     1    32 1   
     4     2     3 1   
     5     2     6 1   
     6     2    33 1   
     7     3     4 1   
     8     3     5 1   
     9     6     7 1   
    10     6    34 1   
    11     6    35 1   
    12     7     8 1   
    13     7    36 1   
    14     7    37 1   
    15     8     9 2   
    16     8    10 1   
    17    10    11 1   
    18    10    38 1   
    19    11    12 1   
    20    11    14 1   
    21    11    39 1   
    22    12    13 2   
    23    12    16 1   
    24    14    15 1   
    25    14    40 1   
    26    14    41 1   
    27    15    21 1   
    28    16    17 1   
    29    16    42 1   
    30    17    18 1   
    31    17    43 1   
    32    17    44 1   
    33    18    19 1   
    34    18    20 1   
    35    21    22 1   
    36    21    45 1   
    37    21    46 1   
    38    22    23 ar  
    39    22    30 ar  
    40    23    24 ar  
    41    23    47 1   
    42    24    25 ar  
    43    24    48 1   
    44    25    26 1   
    45    25    29 ar  
    46    26    27 1   
    47    26    28 1   
    48    29    30 ar  
    49    29    49 1   
    50    30    50 1   
@<TRIPOS>SUBSTRUCTURE
     1 GTB         1 TEMP              0 ****  ****    0 ROOT
