@<TRIPOS>MOLECULE
GTC
   27    28     1     0     0
SMALL
bcc


@<TRIPOS>ATOM
      1 C6           0.7090    -0.7700     0.5690 c6         1 GTC      -0.049000
      2 C2           2.4920    -2.2840    -0.3500 c6         1 GTC      -0.065400
      3 C5           1.7350     0.3590     0.7560 c6         1 GTC      -0.192700
      4 C4           3.1260    -0.2420     0.9650 c6         1 GTC      -0.047400
      5 C10         -2.7180     0.1250    -0.3500 cs         1 GTC       0.531400
      6 C12          1.7100     1.4030    -0.3840 c          1 GTC       0.931600
      7 O14          2.6480     2.2240    -0.4020 o          1 GTC      -0.833300
      8 C3           3.5210    -1.1710    -0.1770 c6         1 GTC      -0.072400
      9 C1           1.0920    -1.7180    -0.5680 c6         1 GTC      -0.076400
     10 C7          -0.6750    -0.2290     0.4400 cc         1 GTC       0.442900
     11 N8          -1.2530     0.5370     1.3100 n2         1 GTC      -0.523300
     12 N9          -2.4910     0.7530     0.8060 ns         1 GTC      -0.219900
     13 N11         -1.5460    -0.5190    -0.5670 ns         1 GTC      -0.377400
     14 H6           0.7110    -1.3610     1.4940 hc         1 GTC       0.037700
     15 H2           2.7600    -2.9300    -1.1890 hc         1 GTC       0.020200
     16 H2A          2.4910    -2.9160     0.5440 hc         1 GTC       0.020200
     17 H5           1.4670     0.8980     1.6730 hc         1 GTC       0.050700
     18 H4           3.8540     0.5610     1.0780 hc         1 GTC       0.030700
     19 H4A          3.1370    -0.8090     1.9030 hc         1 GTC       0.030700
     20 H3           4.5090    -1.6000     0.0100 hc         1 GTC       0.038700
     21 H3A          3.6020    -0.5990    -1.1070 hc         1 GTC       0.038700
     22 H1           0.3750    -2.5420    -0.6320 hc         1 GTC       0.043700
     23 H1A          1.0620    -1.1860    -1.5220 hc         1 GTC       0.043700
     24 HN9         -3.1500     1.3370     1.2980 hn         1 GTC       0.376500
     25 HN11        -1.3460    -1.0560    -1.3970 hn         1 GTC       0.374500
     26 O13          0.7460     1.3700    -1.1760 o          1 GTC      -0.833300
     27 S15         -4.0990     0.1250    -1.2980 s          1 GTC      -0.719400
@<TRIPOS>BOND
     1     1     3 1   
     2     1     9 1   
     3     1    10 1   
     4     1    14 1   
     5     2     8 1   
     6     2     9 1   
     7     2    15 1   
     8     2    16 1   
     9     3     4 1   
    10     3     6 1   
    11     3    17 1   
    12     4     8 1   
    13     4    18 1   
    14     4    19 1   
    15     5    12 1   
    16     5    13 1   
    17     5    27 2   
    18     6     7 1   
    19     6    26 1   
    20     8    20 1   
    21     8    21 1   
    22     9    22 1   
    23     9    23 1   
    24    10    11 2   
    25    10    13 1   
    26    11    12 1   
    27    12    24 1   
    28    13    25 1   
@<TRIPOS>SUBSTRUCTURE
     1 GTC         1 TEMP              0 ****  ****    0 ROOT
