@<TRIPOS>MOLECULE
GTC
   27    28     1     0     0
SMALL
No Charge or Current Charge


@<TRIPOS>ATOM
      1 C6           0.7380    -0.7460     0.7920 c6         1 GTC      -0.049000
      2 C2           2.4060    -2.4830    -0.1170 c6         1 GTC      -0.065400
      3 C5           1.7990     0.3990     0.5810 c6         1 GTC      -0.192700
      4 C4           3.2460    -0.1790     0.5760 c6         1 GTC      -0.047400
      5 C10         -2.4580     0.5900    -0.3850 cs         1 GTC       0.397400
      6 C12          1.5480     1.3450    -0.6250 c          1 GTC       0.721000
      7 O14          1.4760     2.5410    -0.3950 o          1 GTC      -0.728000
      8 C3           3.4210    -1.3560    -0.4130 c6         1 GTC      -0.072400
      9 C1           0.9540    -1.9530    -0.1740 c6         1 GTC      -0.076400
     10 C7          -0.7000    -0.2520     0.7120 cc         1 GTC       0.442900
     11 N8          -1.6350    -0.2490     1.6110 n2         1 GTC      -0.523300
     12 N9          -2.7280     0.2810     0.9230 ns         1 GTC      -0.266400
     13 N11         -1.1700     0.2260    -0.4680 ns         1 GTC      -0.423900
     14 H6           0.8970    -1.1340     1.8080 hc         1 GTC       0.037700
     15 H2           2.5330    -3.2990    -0.8420 hc         1 GTC       0.020200
     16 H2A          2.6060    -2.9120     0.8750 hc         1 GTC       0.020200
     17 H5           1.7740     1.0520     1.4640 hc         1 GTC       0.050700
     18 H4           3.9660     0.6170     0.3410 hc         1 GTC       0.030700
     19 H4A          3.4990    -0.5260     1.5880 hc         1 GTC       0.030700
     20 H3           4.4440    -1.7510    -0.3400 hc         1 GTC       0.038700
     21 H3A          3.2990    -1.0030    -1.4460 hc         1 GTC       0.038700
     22 H1           0.2620    -2.7640     0.0900 hc         1 GTC       0.043700
     23 H1A          0.7130    -1.6760    -1.2090 hc         1 GTC       0.043700
     24 HN9         -3.6560     0.4670     1.3150 hn         1 GTC       0.490000
     25 HN11        -0.5830     0.3920    -1.2830 hn         1 GTC       0.488000
     26 O13          1.2500     0.8540    -1.7040 o          1 GTC      -0.728000
     27 S15         -3.4320     1.2790    -1.5480 s          1 GTC      -0.719400
@<TRIPOS>BOND
     1     1     3 1   
     2     1     9 1   
     3     1    10 1   
     4     1    14 1   
     5     2     8 1   
     6     2     9 1   
     7     2    15 1   
     8     2    16 1   
     9     3     4 1   
    10     3     6 1   
    11     3    17 1   
    12     4     8 1   
    13     4    18 1   
    14     4    19 1   
    15     5    12 1   
    16     5    13 1   
    17     5    27 2   
    18     6     7 1   
    19     6    26 1   
    20     8    20 1   
    21     8    21 1   
    22     9    22 1   
    23     9    23 1   
    24    10    11 2   
    25    10    13 1   
    26    11    12 1   
    27    12    24 1   
    28    13    25 1   
@<TRIPOS>SUBSTRUCTURE
     1 GTC         1 TEMP              0 ****  ****    0 ROOT
