@<TRIPOS>MOLECULE
GTD
   53    53     1     0     0
SMALL
bcc


@<TRIPOS>ATOM
      1 N1          -6.7620     1.8940     1.4500 n8         1 GTD      -0.889800
      2 CA1         -5.8900     2.7210     0.6290 c3         1 GTD       0.011500
      3 C1          -6.6130     3.6310    -0.3960 c          1 GTD       0.904600
      4 O11         -7.8060     3.3750    -0.6520 o          1 GTD      -0.844300
      5 O12         -5.9220     4.5380    -0.9050 o          1 GTD      -0.844300
      6 CB1         -4.8870     1.8390    -0.1190 c3         1 GTD      -0.043400
      7 CG1         -4.0340     0.9920     0.8160 c3         1 GTD      -0.150400
      8 CD1         -3.0910     0.0710     0.0840 c          1 GTD       0.666100
      9 OE1         -3.3610    -0.4530    -0.9860 o          1 GTD      -0.592100
     10 N2          -1.9060    -0.1520     0.6960 ns         1 GTD      -0.570900
     11 CA2         -0.9950    -1.1470     0.2000 c3         1 GTD       0.031700
     12 C2          -1.5610    -2.5630     0.3780 c          1 GTD       0.644100
     13 O2          -2.2990    -2.8390     1.3130 o          1 GTD      -0.646100
     14 CB2          0.3270    -1.0440     0.9480 c3         1 GTD       0.022700
     15 SG2          1.0400     0.6100     0.6780 ss         1 GTD      -0.284200
     16 N3          -1.1390    -3.4390    -0.5300 ns         1 GTD      -0.522900
     17 CA3         -1.4710    -4.8410    -0.5250 c3         1 GTD      -0.057000
     18 C3          -0.8010    -5.5610    -1.7140 c          1 GTD       0.923600
     19 O31         -0.1210    -4.8600    -2.4880 o          1 GTD      -0.836800
     20 O32         -1.0120    -6.7840    -1.7810 o          1 GTD      -0.836800
     21 C7           2.8360     0.2380     0.4910 c6         1 GTD       0.080800
     22 C8           3.5800     0.9550     1.5620 c2         1 GTD      -0.107800
     23 N5           3.3370     0.4780     2.9230 no         1 GTD       0.293100
     24 O21          2.8150    -0.6050     3.0340 o          1 GTD      -0.178500
     25 O22          3.6810     1.1710     3.8460 o          1 GTD      -0.178500
     26 C9           4.4070     1.9750     1.3910 c2         1 GTD      -0.122700
     27 C4           4.7160     2.4920     0.0300 c6         1 GTD       0.006400
     28 N4           6.2280     2.5190    -0.1280 no         1 GTD       0.236300
     29 O41          6.7090     1.8740    -1.0200 o          1 GTD      -0.193000
     30 O42          6.8350     3.1900     0.6630 o          1 GTD      -0.193000
     31 C5           4.1010     1.7260    -1.0840 c2         1 GTD      -0.122700
     32 C6           3.2720     0.7200    -0.8490 c2         1 GTD      -0.107800
     33 N6           2.7010     0.0090    -1.9930 no         1 GTD       0.293100
     34 O61          2.1740    -1.0540    -1.7670 o          1 GTD      -0.178500
     35 O62          2.7970     0.5060    -3.0860 o          1 GTD      -0.178500
     36 HN11        -7.3450     2.5000     2.0160 hn         1 GTD       0.325300
     37 HN12        -7.4140     1.4250     0.8320 hn         1 GTD       0.325300
     38 HA1         -5.3220     3.3720     1.3060 h1         1 GTD       0.029700
     39 HB11        -5.4290     1.1870    -0.8100 hc         1 GTD       0.054700
     40 HB12        -4.2450     2.4780    -0.7270 hc         1 GTD       0.054700
     41 HG11        -3.4790     1.6370     1.5030 hc         1 GTD       0.056200
     42 HG12        -4.6860     0.3730     1.4390 hc         1 GTD       0.056200
     43 HN2         -1.8010     0.1520     1.6520 hn         1 GTD       0.305500
     44 HA2         -0.8070    -0.9610    -0.8600 h1         1 GTD       0.098700
     45 HB21         0.1860    -1.2140     2.0160 h1         1 GTD       0.088700
     46 HB22         1.0260    -1.7890     0.5740 h1         1 GTD       0.088700
     47 HN3         -0.5600    -3.1520    -1.3090 hn         1 GTD       0.347500
     48 HA31        -1.1470    -5.3120     0.4070 h1         1 GTD       0.035200
     49 HA32        -2.5540    -4.9850    -0.5880 h1         1 GTD       0.035200
     50 H1           2.9760    -0.8400     0.5810 h1         1 GTD       0.149700
     51 H3           4.8690     2.4730     2.2320 ha         1 GTD       0.194000
     52 H4           4.4200     3.5460    -0.0360 h1         1 GTD       0.129700
     53 H5           4.3160     2.0490    -2.0930 ha         1 GTD       0.194000
@<TRIPOS>BOND
     1     1     2 1   
     2     1    36 1   
     3     1    37 1   
     4     2     3 1   
     5     2     6 1   
     6     2    38 1   
     7     3     4 1   
     8     3     5 1   
     9     6     7 1   
    10     6    39 1   
    11     6    40 1   
    12     7     8 1   
    13     7    41 1   
    14     7    42 1   
    15     8     9 2   
    16     8    10 1   
    17    10    11 1   
    18    10    43 1   
    19    11    12 1   
    20    11    14 1   
    21    11    44 1   
    22    12    13 2   
    23    12    16 1   
    24    14    15 1   
    25    14    45 1   
    26    14    46 1   
    27    15    21 1   
    28    16    17 1   
    29    16    47 1   
    30    17    18 1   
    31    17    48 1   
    32    17    49 1   
    33    18    19 1   
    34    18    20 1   
    35    21    22 1   
    36    21    32 1   
    37    21    50 1   
    38    22    23 1   
    39    22    26 2   
    40    23    24 1   
    41    23    25 1   
    42    26    27 1   
    43    26    51 1   
    44    27    28 1   
    45    27    31 1   
    46    27    52 1   
    47    28    29 1   
    48    28    30 1   
    49    31    32 2   
    50    31    53 1   
    51    32    33 1   
    52    33    34 1   
    53    33    35 1   
@<TRIPOS>SUBSTRUCTURE
     1 GTD         1 TEMP              0 ****  ****    0 ROOT
