@<TRIPOS>MOLECULE
GTD
   53    53     1     0     0
SMALL
No Charge or Current Charge


@<TRIPOS>ATOM
      1 N1          -5.5150     3.5160     0.5470 n8         1 GTD      -1.000200
      2 CA1         -4.0980     3.3640     1.0450 c3         1 GTD       0.011500
      3 C1          -3.2380     4.6950     1.1110 c          1 GTD       0.694000
      4 O11         -3.1890     5.4070     0.1160 o          1 GTD      -0.739000
      5 O12         -2.7520     5.0180     2.1860 o          1 GTD      -0.739000
      6 CB1         -3.3400     2.2740     0.2400 c3         1 GTD      -0.043400
      7 CG1         -3.9430     0.8500     0.3620 c3         1 GTD      -0.150400
      8 CD1         -3.0870    -0.1790    -0.3800 c          1 GTD       0.599100
      9 OE1         -3.0840    -0.2750    -1.5990 o          1 GTD      -0.592100
     10 N2          -2.3580    -1.0200     0.4320 ns         1 GTD      -0.503900
     11 CA2         -1.4080    -2.0580    -0.0440 c3         1 GTD       0.031700
     12 C2          -1.6190    -3.3880     0.7320 c          1 GTD       0.577100
     13 O2          -2.2190    -3.4550     1.8000 o          1 GTD      -0.646100
     14 CB2          0.0580    -1.5800     0.1070 c3         1 GTD       0.070600
     15 SG2          0.3950    -0.0530    -0.8930 ss         1 GTD      -0.380000
     16 N3          -1.0820    -4.5090     0.1330 ns         1 GTD      -0.455900
     17 CA3         -1.1440    -5.8810     0.6910 c3         1 GTD      -0.057000
     18 C3          -0.5770    -6.9470    -0.2890 c          1 GTD       0.713000
     19 O31          0.1590    -6.5790    -1.1950 o          1 GTD      -0.731500
     20 O32         -0.9220    -8.1090    -0.1330 o          1 GTD      -0.731500
     21 C7           2.2210     0.1700    -0.6360 c6         1 GTD       0.128700
     22 C8           2.6080     0.4960     0.8220 c2         1 GTD      -0.107800
     23 N5           2.9210    -0.6360     1.7200 no         1 GTD       0.673100
     24 O21          3.1160    -1.7530     1.2240 o          1 GTD      -0.368500
     25 O22          2.9680    -0.4120     2.9360 o          1 GTD      -0.368500
     26 C9           2.6520     1.7880     1.2200 c2         1 GTD      -0.172700
     27 C4           2.3740     2.9300     0.2450 c6         1 GTD       0.035700
     28 N4           3.0920     4.2450     0.7130 no         1 GTD       0.587000
     29 O41          4.3250     4.2240     0.8260 o          1 GTD      -0.383000
     30 O42          2.3880     5.2370     0.9350 o          1 GTD      -0.383000
     31 C5           2.8390     2.5340    -1.1550 c2         1 GTD      -0.172700
     32 C6           2.7920     1.2480    -1.5740 c2         1 GTD      -0.107800
     33 N6           3.2380     0.8110    -2.9140 no         1 GTD       0.673100
     34 O61          3.0150    -0.3550    -3.2670 o          1 GTD      -0.368500
     35 O62          3.8210     1.6390    -3.6280 o          1 GTD      -0.368500
     36 HN11        -6.0050     4.1970     1.1390 hn         1 GTD       0.380500
     37 HN12        -5.4850     3.9840    -0.3670 hn         1 GTD       0.380500
     38 HA1         -4.1740     3.0010     2.0800 h1         1 GTD       0.029700
     39 HB11        -3.2940     2.5640    -0.8170 hc         1 GTD       0.054700
     40 HB12        -2.3020     2.2400     0.5960 hc         1 GTD       0.054700
     41 HG11        -4.0040     0.5910     1.4260 hc         1 GTD       0.056200
     42 HG12        -4.9470     0.8510    -0.0780 hc         1 GTD       0.056200
     43 HN2         -2.4740    -0.9010     1.4320 hn         1 GTD       0.305500
     44 HA2         -1.6020    -2.2710    -1.1030 h1         1 GTD       0.098700
     45 HB21         0.2590    -1.3700     1.1660 h1         1 GTD       0.088700
     46 HB22         0.7410    -2.3740    -0.2210 h1         1 GTD       0.088700
     47 HN3         -0.6070    -4.3840    -0.7560 hn         1 GTD       0.347500
     48 HA31        -0.5600    -5.9180     1.6190 h1         1 GTD       0.035200
     49 HA32        -2.1880    -6.1300     0.9160 h1         1 GTD       0.035200
     50 H1           2.6810    -0.7910    -0.9130 h1         1 GTD       0.149700
     51 H3           2.9190     2.0660     2.2440 ha         1 GTD       0.244000
     52 H4           1.3030     3.1770     0.2390 h1         1 GTD       0.129700
     53 H5           3.2210     3.3340    -1.7950 ha         1 GTD       0.244000
@<TRIPOS>BOND
     1     1     2 1   
     2     1    36 1   
     3     1    37 1   
     4     2     3 1   
     5     2     6 1   
     6     2    38 1   
     7     3     4 1   
     8     3     5 1   
     9     6     7 1   
    10     6    39 1   
    11     6    40 1   
    12     7     8 1   
    13     7    41 1   
    14     7    42 1   
    15     8     9 2   
    16     8    10 1   
    17    10    11 1   
    18    10    43 1   
    19    11    12 1   
    20    11    14 1   
    21    11    44 1   
    22    12    13 2   
    23    12    16 1   
    24    14    15 1   
    25    14    45 1   
    26    14    46 1   
    27    15    21 1   
    28    16    17 1   
    29    16    47 1   
    30    17    18 1   
    31    17    48 1   
    32    17    49 1   
    33    18    19 1   
    34    18    20 1   
    35    21    22 1   
    36    21    32 1   
    37    21    50 1   
    38    22    23 1   
    39    22    26 2   
    40    23    24 1   
    41    23    25 1   
    42    26    27 1   
    43    26    51 1   
    44    27    28 1   
    45    27    31 1   
    46    27    52 1   
    47    28    29 1   
    48    28    30 1   
    49    31    32 2   
    50    31    53 1   
    51    32    33 1   
    52    33    34 1   
    53    33    35 1   
@<TRIPOS>SUBSTRUCTURE
     1 GTD         1 TEMP              0 ****  ****    0 ROOT
