@<TRIPOS>MOLECULE
GTG
   79    84     1     0     0
SMALL
abcg2


@<TRIPOS>ATOM
      1 PA          -3.2590    -4.1450     0.0870 p5         1 GTG       1.443800
      2 O1A         -3.0160    -5.4190     0.8290 o          1 GTG      -0.841000
      3 O2A         -4.5240    -3.9070    -0.6740 o          1 GTG      -0.841000
      4 O3A         -2.0100    -3.8340    -0.9240 os         1 GTG      -0.723800
      5 PB          -0.6020    -4.7030    -0.9890 p5         1 GTG       1.519800
      6 O1B         -0.8800    -6.0450    -1.5870 o          1 GTG      -0.852500
      7 O2B          0.1560    -4.5570     0.2860 o          1 GTG      -0.852500
      8 O3B          0.0380    -3.7420    -2.1670 os         1 GTG      -0.711800
      9 N9A         -1.9980     0.9050     0.2620 na         1 GTG      -0.046700
     10 C8A         -1.6940    -0.1540    -0.5040 cc         1 GTG       0.030700
     11 N7A         -1.2190     0.2530    -1.6610 na         1 GTG       0.139000
     12 C7X         -0.8490    -0.6080    -2.7720 c3         1 GTG       0.024900
     13 C5A         -1.1860     1.6270    -1.6470 cc         1 GTG      -0.341600
     14 C6A         -0.7740     2.5880    -2.6190 c          1 GTG       0.632600
     15 O6A         -0.3160     2.3970    -3.7260 o          1 GTG      -0.488000
     16 N1A         -0.9760     3.8750    -2.1200 ns         1 GTG      -0.451400
     17 C2A         -1.4930     4.1950    -0.8950 cc         1 GTG       0.740800
     18 N2A         -1.6180     5.4870    -0.6060 nv         1 GTG      -1.071200
     19 N3A         -1.8590     3.2910    -0.0140 nd         1 GTG      -0.677100
     20 C4A         -1.6860     2.0420    -0.4360 cd         1 GTG       0.174400
     21 O5D         -3.0300    -2.8970     1.1460 os         1 GTG      -0.581400
     22 C5D         -4.0710    -1.9910     1.4170 c3         1 GTG       0.225600
     23 C4D         -3.5880    -1.0340     2.4900 c5         1 GTG       0.145300
     24 O4D         -2.3490    -0.4100     2.1270 os         1 GTG      -0.382000
     25 C3D         -4.5480     0.1190     2.7080 c5         1 GTG       0.106300
     26 O3D         -4.3380     0.6510     3.9870 oh         1 GTG      -0.702000
     27 C2D         -4.0830     1.1060     1.6270 c5         1 GTG       0.071300
     28 O2D         -4.3590     2.4400     1.9260 oh         1 GTG      -0.704000
     29 C1D         -2.5640     0.8580     1.6170 c5         1 GTG       0.319300
     30 PG           1.6110    -3.4750    -2.4940 p5         1 GTG       1.441800
     31 O1G          1.6690    -2.8510    -3.8560 o          1 GTG      -0.853500
     32 O2G          2.4380    -4.6860    -2.1900 o          1 GTG      -0.853500
     33 O5E          1.8810    -2.3210    -1.3510 os         1 GTG      -0.567400
     34 C5E          3.1590    -1.7350    -1.3060 c3         1 GTG       0.217600
     35 C4E          3.2320    -0.4560    -2.1260 c5         1 GTG       0.120300
     36 O4E          2.1780     0.4450    -1.7630 os         1 GTG      -0.431000
     37 C3E          4.5200     0.3150    -1.8780 c5         1 GTG       0.109300
     38 O3E          4.7900     1.1210    -2.9950 oh         1 GTG      -0.705000
     39 C2E          4.1200     1.1700    -0.6730 c5         1 GTG       0.071300
     40 O2E          4.8620     2.3420    -0.5090 oh         1 GTG      -0.713000
     41 C1E          2.6670     1.5130    -1.0160 c5         1 GTG       0.316300
     42 N9B          1.8330     1.6920     0.1520 na         1 GTG      -0.181500
     43 C8B          1.3360     0.7060     0.9700 cc         1 GTG       0.433400
     44 N7B          0.6800     1.1800     1.9840 nd         1 GTG      -0.608000
     45 C5B          0.7490     2.5400     1.8400 cd         1 GTG       0.096500
     46 C6B          0.1620     3.5810     2.6160 c          1 GTG       0.523500
     47 O6B         -0.5240     3.4890     3.6200 o          1 GTG      -0.528000
     48 N1B          0.4740     4.8330     2.0750 ns         1 GTG      -0.457400
     49 C2B          1.1980     5.0610     0.9390 cd         1 GTG       0.695800
     50 N2B          1.4140     6.3430     0.6030 nv         1 GTG      -1.052200
     51 N3B          1.7050     4.0990     0.2100 nc         1 GTG      -0.679100
     52 C4B          1.4580     2.8770     0.7030 cc         1 GTG       0.108400
     53 H8          -1.8110    -1.1890    -0.2220 h5         1 GTG       0.302000
     54 HC71        -1.4200    -0.3170    -3.6490 h1         1 GTG       0.118033
     55 HC72         0.2120    -0.5200    -2.9690 h1         1 GTG       0.118033
     56 HC73        -1.0820    -1.6320    -2.5060 h1         1 GTG       0.118033
     57 HN1         -0.7250     4.6270    -2.7500 hn         1 GTG       0.319500
     58 HN21        -1.4180     6.2150    -1.2690 hn         1 GTG       0.504000
     59 HN22        -2.0550     5.7500     0.2610 hn         1 GTG       0.504000
     60 H5'1        -4.3760    -1.4510     0.5120 h1         1 GTG       0.010700
     61 H5'2        -4.9670    -2.4920     1.8000 h1         1 GTG       0.010700
     62 H4          -3.4080    -1.5910     3.4130 h1         1 GTG       0.119700
     63 H3          -5.5940    -0.1790     2.5540 h1         1 GTG       0.056700
     64 HO3         -4.6190     1.5740     3.9710 ho         1 GTG       0.505000
     65 H2          -4.5120     0.8110     0.6620 h1         1 GTG       0.062700
     66 HO2         -5.2260     2.6640     1.5750 ho         1 GTG       0.502000
     67 H1          -2.0340     1.6190     2.1970 h2         1 GTG       0.133700
     68 H5B1         3.3860    -1.5310    -0.2540 h1         1 GTG       0.023200
     69 H5B2         3.9440    -2.4150    -1.6600 h1         1 GTG       0.023200
     70 H4B          3.1080    -0.7020    -3.1830 h1         1 GTG       0.140700
     71 H3B          5.3610    -0.3520    -1.6470 h1         1 GTG       0.059700
     72 H3BO         5.3350     1.8610    -2.7020 ho         1 GTG       0.498000
     73 H2B          4.1460     0.5520     0.2330 h1         1 GTG       0.069700
     74 H2BO         5.6610     2.1360    -0.0150 ho         1 GTG       0.504000
     75 H1B          2.6210     2.4540    -1.5770 h2         1 GTG       0.093700
     76 H8B          1.4780    -0.3420     0.7520 h5         1 GTG       0.120100
     77 H1BN         0.1160     5.6310     2.5840 hn         1 GTG       0.305500
     78 H2B1         0.8350     7.0740     0.9810 hn         1 GTG       0.483000
     79 H2B2         1.7960     6.5160    -0.3110 hn         1 GTG       0.483000
@<TRIPOS>BOND
     1     1     2 1   
     2     1     3 1   
     3     1     4 1   
     4     1    21 1   
     5     4     5 1   
     6     5     6 1   
     7     5     7 1   
     8     5     8 1   
     9     8    30 1   
    10     9    10 2   
    11     9    20 1   
    12     9    29 1   
    13    10    11 1   
    14    10    53 1   
    15    11    12 1   
    16    11    13 1   
    17    12    54 1   
    18    12    55 1   
    19    12    56 1   
    20    13    14 1   
    21    13    20 2   
    22    14    15 2   
    23    14    16 1   
    24    16    17 1   
    25    16    57 1   
    26    17    18 1   
    27    17    19 2   
    28    18    58 1   
    29    18    59 1   
    30    19    20 1   
    31    21    22 1   
    32    22    23 1   
    33    22    60 1   
    34    22    61 1   
    35    23    24 1   
    36    23    25 1   
    37    23    62 1   
    38    24    29 1   
    39    25    26 1   
    40    25    27 1   
    41    25    63 1   
    42    26    64 1   
    43    27    28 1   
    44    27    29 1   
    45    27    65 1   
    46    28    66 1   
    47    29    67 1   
    48    30    31 1   
    49    30    32 1   
    50    30    33 1   
    51    33    34 1   
    52    34    35 1   
    53    34    68 1   
    54    34    69 1   
    55    35    36 1   
    56    35    37 1   
    57    35    70 1   
    58    36    41 1   
    59    37    38 1   
    60    37    39 1   
    61    37    71 1   
    62    38    72 1   
    63    39    40 1   
    64    39    41 1   
    65    39    73 1   
    66    40    74 1   
    67    41    42 1   
    68    41    75 1   
    69    42    43 1   
    70    42    52 1   
    71    43    44 2   
    72    43    76 1   
    73    44    45 1   
    74    45    46 1   
    75    45    52 2   
    76    46    47 2   
    77    46    48 1   
    78    48    49 1   
    79    48    77 1   
    80    49    50 1   
    81    49    51 2   
    82    50    78 1   
    83    50    79 1   
    84    51    52 1   
@<TRIPOS>SUBSTRUCTURE
     1 GTG         1 TEMP              0 ****  ****    0 ROOT
