@<TRIPOS>MOLECULE
GTG
   79    84     1     0     0
SMALL
No Charge or Current Charge


@<TRIPOS>ATOM
      1 PA          -3.5730    -3.5960    -0.5220 p5         1 GTG       1.443800
      2 O1A         -3.8040    -5.0680    -0.6110 o          1 GTG      -0.841000
      3 O2A         -4.1440    -2.8600    -1.6880 o          1 GTG      -0.841000
      4 O3A         -2.0930    -3.1620    -0.2060 os         1 GTG      -0.723800
      5 PB          -1.0010    -4.1020    -0.8440 p5         1 GTG       1.519800
      6 O1B         -1.2660    -4.4030    -2.2820 o          1 GTG      -0.852500
      7 O2B         -0.7800    -5.3020     0.0160 o          1 GTG      -0.852500
      8 O3B          0.1460    -3.0380    -0.6680 os         1 GTG      -0.711800
      9 N9A         -1.8610     0.9120     0.4190 na         1 GTG      -0.046700
     10 C8A         -1.1570     0.0530    -0.3860 cc         1 GTG       0.030700
     11 N7A         -0.9560     0.7080    -1.5930 na         1 GTG       0.139000
     12 C7X         -0.3260     0.1300    -2.7860 c3         1 GTG       0.024900
     13 C5A         -1.4770     2.0010    -1.4830 cc         1 GTG      -0.341600
     14 C6A         -1.4920     3.1080    -2.4290 c          1 GTG       0.632600
     15 O6A         -1.0270     3.0820    -3.5550 o          1 GTG      -0.488000
     16 N1A         -2.0940     4.1970    -1.9110 ns         1 GTG      -0.451400
     17 C2A         -2.6020     4.2420    -0.6680 cc         1 GTG       0.740800
     18 N2A         -3.1160     5.4020    -0.3050 nv         1 GTG      -1.071200
     19 N3A         -2.6190     3.2820     0.2270 nd         1 GTG      -0.677100
     20 C4A         -2.0270     2.1090    -0.2310 cd         1 GTG       0.174400
     21 O5D         -4.2390    -3.0720     0.8500 os         1 GTG      -0.581400
     22 C5D         -4.4350    -1.6730     1.0930 c3         1 GTG       0.225600
     23 C4D         -3.6360    -1.2580     2.3690 c5         1 GTG       0.145300
     24 O4D         -2.2990    -0.8220     2.0120 os         1 GTG      -0.382000
     25 C3D         -4.2280    -0.0140     3.1060 c5         1 GTG       0.106300
     26 O3D         -3.6830     0.1900     4.4160 oh         1 GTG      -0.702000
     27 C2D         -3.7510     1.0970     2.1350 c5         1 GTG       0.071300
     28 O2D         -3.8050     2.4100     2.7160 oh         1 GTG      -0.704000
     29 C1D         -2.2960     0.6140     1.7850 c5         1 GTG       0.319300
     30 PG           1.4960    -3.4310    -1.3760 p5         1 GTG       1.441800
     31 O1G          1.5120    -3.0210    -2.8090 o          1 GTG      -0.853500
     32 O2G          1.9520    -4.8350    -1.1670 o          1 GTG      -0.853500
     33 O5E          2.4100    -2.4420    -0.4900 os         1 GTG      -0.567400
     34 C5E          3.7300    -2.0760    -0.9170 c3         1 GTG       0.217600
     35 C4E          3.6970    -0.9530    -2.0080 c5         1 GTG       0.120300
     36 O4E          2.6050    -0.0150    -1.7900 os         1 GTG      -0.431000
     37 C3E          4.9750    -0.0580    -2.0070 c5         1 GTG       0.109300
     38 O3E          5.1510     0.6840    -3.2180 oh         1 GTG      -0.705000
     39 C2E          4.6330     0.9070    -0.8340 c5         1 GTG       0.071300
     40 O2E          5.4430     2.1020    -0.8970 oh         1 GTG      -0.713000
     41 C1E          3.1010     1.1470    -1.0860 c5         1 GTG       0.316300
     42 N9B          2.2580     1.4070     0.0770 na         1 GTG      -0.181500
     43 C8B          2.0690     0.5670     1.1580 cc         1 GTG       0.433400
     44 N7B          1.2870     1.1300     2.0770 nd         1 GTG      -0.608000
     45 C5B          0.9930     2.3950     1.5830 cd         1 GTG       0.096500
     46 C6B          0.1940     3.5120     2.1670 c          1 GTG       0.523500
     47 O6B         -0.3860     3.4860     3.2430 o          1 GTG      -0.528000
     48 N1B          0.1780     4.6110     1.3580 ns         1 GTG      -0.457400
     49 C2B          0.8070     4.6650     0.1670 cd         1 GTG       0.695800
     50 N2B          0.7090     5.7970    -0.5080 nv         1 GTG      -1.052200
     51 N3B          1.5190     3.7210    -0.3990 nc         1 GTG      -0.679100
     52 C4B          1.5860     2.5680     0.3560 cc         1 GTG       0.108400
     53 H8          -0.8630    -0.9590    -0.1400 h5         1 GTG       0.302000
     54 HC71        -1.0760     0.0130    -3.5760 h1         1 GTG       0.118033
     55 HC72         0.4710     0.7950    -3.1390 h1         1 GTG       0.118033
     56 HC73         0.1030    -0.8480    -2.5480 h1         1 GTG       0.118033
     57 HN1         -2.1290     5.0160    -2.4930 hn         1 GTG       0.319500
     58 HN21        -3.5450     5.9520    -1.0380 hn         1 GTG       0.504000
     59 HN22        -3.6480     5.3610     0.5550 hn         1 GTG       0.504000
     60 H5'1        -4.1200    -1.0590     0.2390 h1         1 GTG       0.010700
     61 H5'2        -5.5020    -1.4830     1.2650 h1         1 GTG       0.010700
     62 H4          -3.5770    -2.1250     3.0400 h1         1 GTG       0.119700
     63 H3          -5.3260    -0.0580     3.1540 h1         1 GTG       0.056700
     64 HO3         -3.6350     1.1740     4.5040 ho         1 GTG       0.505000
     65 H2          -4.3710     1.0790     1.2270 h1         1 GTG       0.062700
     66 HO2         -3.4410     3.0150     2.0140 ho         1 GTG       0.502000
     67 H1          -1.5650     1.0830     2.4540 h2         1 GTG       0.133700
     68 H5B1         4.3040    -1.7310    -0.0490 h1         1 GTG       0.023200
     69 H5B2         4.2630    -2.9460    -1.3230 h1         1 GTG       0.023200
     70 H4B          3.5610    -1.4370    -2.9840 h1         1 GTG       0.140700
     71 H3B          5.8780    -0.6470    -1.7880 h1         1 GTG       0.059700
     72 H3BO         5.4870     1.5580    -2.9010 ho         1 GTG       0.498000
     73 H2B          4.7860     0.4020     0.1310 h1         1 GTG       0.069700
     74 H2BO         5.2520     2.6400    -0.0910 ho         1 GTG       0.504000
     75 H1B          2.9820     2.0170    -1.7440 h2         1 GTG       0.093700
     76 H8B          2.5040    -0.4250     1.2080 h5         1 GTG       0.120100
     77 H1BN        -0.3360     5.4090     1.6930 hn         1 GTG       0.305500
     78 H2B1        -0.1200     6.3560    -0.3570 hn         1 GTG       0.483000
     79 H2B2         1.0520     5.7520    -1.4590 hn         1 GTG       0.483000
@<TRIPOS>BOND
     1     1     2 1   
     2     1     3 1   
     3     1     4 1   
     4     1    21 1   
     5     4     5 1   
     6     5     6 1   
     7     5     7 1   
     8     5     8 1   
     9     8    30 1   
    10     9    10 2   
    11     9    20 1   
    12     9    29 1   
    13    10    11 1   
    14    10    53 1   
    15    11    12 1   
    16    11    13 1   
    17    12    54 1   
    18    12    55 1   
    19    12    56 1   
    20    13    14 1   
    21    13    20 2   
    22    14    15 2   
    23    14    16 1   
    24    16    17 1   
    25    16    57 1   
    26    17    18 1   
    27    17    19 2   
    28    18    58 1   
    29    18    59 1   
    30    19    20 1   
    31    21    22 1   
    32    22    23 1   
    33    22    60 1   
    34    22    61 1   
    35    23    24 1   
    36    23    25 1   
    37    23    62 1   
    38    24    29 1   
    39    25    26 1   
    40    25    27 1   
    41    25    63 1   
    42    26    64 1   
    43    27    28 1   
    44    27    29 1   
    45    27    65 1   
    46    28    66 1   
    47    29    67 1   
    48    30    31 1   
    49    30    32 1   
    50    30    33 1   
    51    33    34 1   
    52    34    35 1   
    53    34    68 1   
    54    34    69 1   
    55    35    36 1   
    56    35    37 1   
    57    35    70 1   
    58    36    41 1   
    59    37    38 1   
    60    37    39 1   
    61    37    71 1   
    62    38    72 1   
    63    39    40 1   
    64    39    41 1   
    65    39    73 1   
    66    40    74 1   
    67    41    42 1   
    68    41    75 1   
    69    42    43 1   
    70    42    52 1   
    71    43    44 2   
    72    43    76 1   
    73    44    45 1   
    74    45    46 1   
    75    45    52 2   
    76    46    47 2   
    77    46    48 1   
    78    48    49 1   
    79    48    77 1   
    80    49    50 1   
    81    49    51 2   
    82    50    78 1   
    83    50    79 1   
    84    51    52 1   
@<TRIPOS>SUBSTRUCTURE
     1 GTG         1 TEMP              0 ****  ****    0 ROOT
