@<TRIPOS>MOLECULE
GTI
   31    33     1     0     0
SMALL
bcc


@<TRIPOS>ATOM
      1 NJ           1.0400    -1.8300    -0.2630 nc         1 GTI      -0.535100
      2 NK           0.1450     0.2550     0.1260 nd         1 GTI      -0.776000
      3 NL          -4.8200     1.1440    -0.0130 n7         1 GTI      -0.789200
      4 NQ          -2.1920     0.0280     0.1740 nh         1 GTI      -0.759300
      5 CAA          5.1430     1.1070     0.0030 ca         1 GTI      -0.112000
      6 CAB          4.0360     1.9240     0.1920 ca         1 GTI      -0.143500
      7 CAC          4.9650    -0.2550    -0.2090 ca         1 GTI      -0.143500
      8 CAD          2.7580     1.3850     0.1690 ca         1 GTI      -0.087500
      9 CAE          3.6900    -0.7970    -0.2310 ca         1 GTI      -0.087500
     10 CAF         -3.6370     1.9790    -0.1080 c6         1 GTI       0.139300
     11 CAG         -4.5380    -0.2020    -0.4710 c6         1 GTI       0.139300
     12 CAH         -2.4210     1.4010     0.6060 c6         1 GTI       0.180300
     13 CAI         -3.3480    -0.8520     0.2270 c6         1 GTI       0.180300
     14 SAM         -0.5950    -2.1390    -0.2210 ss         1 GTI      -0.028300
     15 CAN          2.5740     0.0190    -0.0420 ca         1 GTI      -0.132500
     16 CAO          1.2170    -0.5530    -0.0640 cd         1 GTI       0.687500
     17 CAP         -0.9560    -0.4510     0.0580 cc         1 GTI       0.713300
     18 HAA          6.1400     1.5280     0.0210 ha         1 GTI       0.130000
     19 HAB          4.1670     2.9860     0.3550 ha         1 GTI       0.131500
     20 HAC          5.8220    -0.8980    -0.3580 ha         1 GTI       0.131500
     21 HAD          1.8990     2.0260     0.3150 ha         1 GTI       0.150000
     22 HAE          3.5580    -1.8580    -0.3940 ha         1 GTI       0.150000
     23 HAF         -3.3970     2.1200    -1.1660 h1         1 GTI       0.066700
     24 HAFA        -3.8530     2.9640     0.3070 h1         1 GTI       0.066700
     25 HAG         -5.4170    -0.8310    -0.3240 h1         1 GTI       0.066700
     26 HAGA        -4.3400    -0.1680    -1.5460 h1         1 GTI       0.066700
     27 HAH         -2.5830     1.4150     1.6910 h1         1 GTI       0.059950
     28 HAHA        -1.5350     1.9940     0.3940 h1         1 GTI       0.059950
     29 HAI         -3.1220    -1.7970    -0.2720 h1         1 GTI       0.059950
     30 HAIA        -3.5930    -1.0790     1.2710 h1         1 GTI       0.059950
     31 HNL         -5.1420     1.1160     0.9480 hn         1 GTI       0.353800
@<TRIPOS>BOND
     1     1    14 1   
     2     1    16 2   
     3     2    16 1   
     4     2    17 2   
     5     3    10 1   
     6     3    11 1   
     7     3    31 1   
     8     4    12 1   
     9     4    13 1   
    10     4    17 1   
    11     5     6 ar  
    12     5     7 ar  
    13     5    18 1   
    14     6     8 ar  
    15     6    19 1   
    16     7     9 ar  
    17     7    20 1   
    18     8    15 ar  
    19     8    21 1   
    20     9    15 ar  
    21     9    22 1   
    22    10    12 1   
    23    10    23 1   
    24    10    24 1   
    25    11    13 1   
    26    11    25 1   
    27    11    26 1   
    28    12    27 1   
    29    12    28 1   
    30    13    29 1   
    31    13    30 1   
    32    14    17 1   
    33    15    16 1   
@<TRIPOS>SUBSTRUCTURE
     1 GTI         1 TEMP              0 ****  ****    0 ROOT
