@<TRIPOS>MOLECULE
GTI
   31    33     1     0     0
SMALL
No Charge or Current Charge


@<TRIPOS>ATOM
      1 NJ           1.0730    -1.8670    -0.2760 nc         1 GTI      -0.535100
      2 NK           0.1490     0.2550     0.0590 nd         1 GTI      -0.776000
      3 NL          -4.9390     1.1510     0.1130 n7         1 GTI      -0.844400
      4 NQ          -2.1940     0.0120     0.0840 nh         1 GTI      -0.759300
      5 CAA          5.2460     1.1080     0.0530 ca         1 GTI      -0.094000
      6 CAB          4.1260     1.9410     0.2040 ca         1 GTI      -0.125500
      7 CAC          5.0670    -0.2690    -0.1440 ca         1 GTI      -0.125500
      8 CAD          2.8300     1.3990     0.1570 ca         1 GTI      -0.069500
      9 CAE          3.7720    -0.8150    -0.1910 ca         1 GTI      -0.069500
     10 CAF         -3.7490     2.0270    -0.0960 c6         1 GTI       0.139300
     11 CAG         -4.6830    -0.2160    -0.4240 c6         1 GTI       0.139300
     12 CAH         -2.4410     1.4290     0.5140 c6         1 GTI       0.180300
     13 CAI         -3.3990    -0.8770     0.1750 c6         1 GTI       0.180300
     14 SAM         -0.5610    -2.1930    -0.2820 ss         1 GTI      -0.028300
     15 CAN          2.6310     0.0110    -0.0410 ca         1 GTI      -0.132500
     16 CAO          1.2600    -0.5610    -0.0900 cd         1 GTI       0.687500
     17 CAP         -0.9170    -0.5020    -0.0250 cc         1 GTI       0.713300
     18 HAA          6.2480     1.5290     0.0900 ha         1 GTI       0.112000
     19 HAB          4.2620     3.0090     0.3570 ha         1 GTI       0.113500
     20 HAC          5.9330    -0.9170    -0.2600 ha         1 GTI       0.113500
     21 HAD          1.9800     2.0690     0.2770 ha         1 GTI       0.132000
     22 HAE          3.6650    -1.8880    -0.3450 ha         1 GTI       0.132000
     23 HAF         -3.5940     2.1750    -1.1760 h1         1 GTI       0.066700
     24 HAFA        -3.9330     3.0190     0.3430 h1         1 GTI       0.066700
     25 HAG         -5.5500    -0.8640    -0.2240 h1         1 GTI       0.066700
     26 HAGA        -4.5680    -0.1600    -1.5170 h1         1 GTI       0.066700
     27 HAH         -2.5100     1.4710     1.6110 h1         1 GTI       0.059950
     28 HAHA        -1.6070     2.0860     0.2250 h1         1 GTI       0.059950
     29 HAI         -3.2380    -1.8260    -0.3540 h1         1 GTI       0.059950
     30 HAIA        -3.5890    -1.1280     1.2290 h1         1 GTI       0.059950
     31 HNL         -5.1040     1.0730     1.1250 hn         1 GTI       0.409000
@<TRIPOS>BOND
     1     1    14 1   
     2     1    16 2   
     3     2    16 1   
     4     2    17 2   
     5     3    10 1   
     6     3    11 1   
     7     3    31 1   
     8     4    12 1   
     9     4    13 1   
    10     4    17 1   
    11     5     6 ar  
    12     5     7 ar  
    13     5    18 1   
    14     6     8 ar  
    15     6    19 1   
    16     7     9 ar  
    17     7    20 1   
    18     8    15 ar  
    19     8    21 1   
    20     9    15 ar  
    21     9    22 1   
    22    10    12 1   
    23    10    23 1   
    24    10    24 1   
    25    11    13 1   
    26    11    25 1   
    27    11    26 1   
    28    12    27 1   
    29    12    28 1   
    30    13    29 1   
    31    13    30 1   
    32    14    17 1   
    33    15    16 1   
@<TRIPOS>SUBSTRUCTURE
     1 GTI         1 TEMP              0 ****  ****    0 ROOT
