@<TRIPOS>MOLECULE
GTJ
   34    35     1     0     0
SMALL
No Charge or Current Charge


@<TRIPOS>ATOM
      1 N1          -0.5990     0.4800    -0.2390 na         1 GTJ      -0.212600
      2 N3           1.7540     0.0270     0.2270 ns         1 GTJ      -0.436400
      3 C4          -1.7540    -0.2450    -0.1860 ca         1 GTJ      -0.079200
      4 C5          -3.0830     0.1170    -0.4540 ca         1 GTJ      -0.115000
      5 C6          -4.0720    -0.8760    -0.3040 ca         1 GTJ      -0.101000
      6 C7          -3.7140    -2.1830     0.1050 ca         1 GTJ      -0.132000
      7 C8          -2.3650    -2.5060     0.3690 ca         1 GTJ      -0.052000
      8 C10          0.4400    -0.3710     0.1460 cc         1 GTJ       0.495400
      9 C13          5.0730    -0.2850    -0.6030 c3         1 GTJ      -0.077100
     10 C1          -0.6930     4.3410     0.1600 c3         1 GTJ      -0.091100
     11 C2          -0.7510     2.8550     0.5630 c3         1 GTJ      -0.102400
     12 C3          -0.5450     1.9000    -0.6310 c3         1 GTJ       0.077600
     13 C9          -1.3970    -1.5020     0.2140 ca         1 GTJ       0.086400
     14 N2          -0.0230    -1.6030     0.4260 nd         1 GTJ      -0.568100
     15 C11          2.8600    -0.7090     0.5870 c          1 GTJ       0.611100
     16 O1           2.8270    -1.8890     0.9060 o          1 GTJ      -0.516100
     17 C12          4.1710     0.0880     0.5950 c3         1 GTJ      -0.159400
     18 H1           1.9500     0.9890    -0.0030 hn         1 GTJ       0.320500
     19 H2          -3.3490     1.1250    -0.7650 ha         1 GTJ       0.114000
     20 H3          -5.1150    -0.6370    -0.5030 ha         1 GTJ       0.110000
     21 H4          -4.4830    -2.9440     0.2200 ha         1 GTJ       0.113000
     22 H5          -2.0800    -3.5050     0.6870 ha         1 GTJ       0.131000
     23 H6           5.3320    -1.3510    -0.5790 hc         1 GTJ       0.046033
     24 H7           4.5670    -0.0740    -1.5520 hc         1 GTJ       0.046033
     25 H8           6.0050     0.2930    -0.5760 hc         1 GTJ       0.046033
     26 H9           0.2810     4.5870    -0.2790 hc         1 GTJ       0.037700
     27 H10         -1.4740     4.5750    -0.5740 hc         1 GTJ       0.037700
     28 H11         -0.8460     4.9810     1.0380 hc         1 GTJ       0.037700
     29 H12          0.0160     2.6580     1.3220 hc         1 GTJ       0.052700
     30 H13         -1.7230     2.6470     1.0280 hc         1 GTJ       0.052700
     31 H14          0.4260     2.1030    -1.0990 h1         1 GTJ       0.058200
     32 H15         -1.3150     2.0910    -1.3900 h1         1 GTJ       0.058200
     33 H16          4.7180    -0.1420     1.5180 hc         1 GTJ       0.056200
     34 H17          3.9670     1.1640     0.5460 hc         1 GTJ       0.056200
@<TRIPOS>BOND
     1     1     3 1   
     2     1     8 1   
     3     1    12 1   
     4     2     8 1   
     5     2    15 1   
     6     2    18 1   
     7     3     4 ar  
     8     3    13 ar  
     9     4     5 ar  
    10     4    19 1   
    11     5     6 ar  
    12     5    20 1   
    13     6     7 ar  
    14     6    21 1   
    15     7    13 ar  
    16     7    22 1   
    17     8    14 2   
    18     9    17 1   
    19     9    23 1   
    20     9    24 1   
    21     9    25 1   
    22    10    11 1   
    23    10    26 1   
    24    10    27 1   
    25    10    28 1   
    26    11    12 1   
    27    11    29 1   
    28    11    30 1   
    29    12    31 1   
    30    12    32 1   
    31    13    14 1   
    32    15    16 2   
    33    15    17 1   
    34    17    33 1   
    35    17    34 1   
@<TRIPOS>SUBSTRUCTURE
     1 GTJ         1 TEMP              0 ****  ****    0 ROOT
