@<TRIPOS>MOLECULE
GTJ
   34    35     1     0     0
SMALL
bcc


@<TRIPOS>ATOM
      1 N1          -0.6590     0.5330    -0.2540 na         1 GTJ      -0.183300
      2 N3           1.6530     0.1580     0.1110 ns         1 GTJ      -0.503400
      3 C4          -1.8130    -0.2090    -0.1570 ca         1 GTJ      -0.079200
      4 C5          -3.1480     0.1180    -0.3500 ca         1 GTJ      -0.133000
      5 C6          -4.0700    -0.9030    -0.1740 ca         1 GTJ      -0.119000
      6 C7          -3.6680    -2.1970     0.1820 ca         1 GTJ      -0.150000
      7 C8          -2.3320    -2.5110     0.3720 ca         1 GTJ      -0.070000
      8 C10          0.3600    -0.3140     0.0760 cc         1 GTJ       0.495400
      9 C13          5.3270    -0.5720    -0.1320 c3         1 GTJ      -0.077100
     10 C1          -0.6800     4.3180     0.2240 c3         1 GTJ      -0.091100
     11 C2          -0.7460     2.8510     0.6190 c3         1 GTJ      -0.102400
     12 C3          -0.5830     1.9400    -0.5920 c3         1 GTJ       0.048300
     13 C9          -1.3920    -1.4980     0.2020 ca         1 GTJ       0.086400
     14 N2          -0.0250    -1.5280     0.3470 nd         1 GTJ      -0.568100
     15 C11          2.7970    -0.5930    -0.0340 c          1 GTJ       0.678100
     16 O1           2.7840    -1.7820    -0.2540 o          1 GTJ      -0.516100
     17 C12          4.0590     0.2270     0.1050 c3         1 GTJ      -0.159400
     18 H1           1.7800     1.1460     0.2710 hn         1 GTJ       0.320500
     19 H2          -3.4640     1.1160    -0.6240 ha         1 GTJ       0.132000
     20 H3          -5.1220    -0.6940    -0.3130 ha         1 GTJ       0.128000
     21 H4          -4.4200    -2.9650     0.3110 ha         1 GTJ       0.131000
     22 H5          -2.0240    -3.5120     0.6480 ha         1 GTJ       0.149000
     23 H6           5.4350    -1.3800     0.5900 hc         1 GTJ       0.046033
     24 H7           5.3470    -1.0060    -1.1300 hc         1 GTJ       0.046033
     25 H8           6.1960     0.0780    -0.0350 hc         1 GTJ       0.046033
     26 H9           0.2890     4.5690    -0.2100 hc         1 GTJ       0.037700
     27 H10         -1.4480     4.5670    -0.5100 hc         1 GTJ       0.037700
     28 H11         -0.8310     4.9600     1.0910 hc         1 GTJ       0.037700
     29 H12          0.0310     2.6280     1.3550 hc         1 GTJ       0.052700
     30 H13         -1.7020     2.6350     1.1010 hc         1 GTJ       0.052700
     31 H14          0.3660     2.1280    -1.0990 h1         1 GTJ       0.058200
     32 H15         -1.3600     2.1440    -1.3290 h1         1 GTJ       0.058200
     33 H16          4.0650     0.6740     1.1040 hc         1 GTJ       0.056200
     34 H17          4.0040     1.0700    -0.5910 hc         1 GTJ       0.056200
@<TRIPOS>BOND
     1     1     3 1   
     2     1     8 1   
     3     1    12 1   
     4     2     8 1   
     5     2    15 1   
     6     2    18 1   
     7     3     4 ar  
     8     3    13 ar  
     9     4     5 ar  
    10     4    19 1   
    11     5     6 ar  
    12     5    20 1   
    13     6     7 ar  
    14     6    21 1   
    15     7    13 ar  
    16     7    22 1   
    17     8    14 2   
    18     9    17 1   
    19     9    23 1   
    20     9    24 1   
    21     9    25 1   
    22    10    11 1   
    23    10    26 1   
    24    10    27 1   
    25    10    28 1   
    26    11    12 1   
    27    11    29 1   
    28    11    30 1   
    29    12    31 1   
    30    12    32 1   
    31    13    14 1   
    32    15    16 2   
    33    15    17 1   
    34    17    33 1   
    35    17    34 1   
@<TRIPOS>SUBSTRUCTURE
     1 GTJ         1 TEMP              0 ****  ****    0 ROOT
