@<TRIPOS>MOLECULE
GTK
   22    22     1     0     0
SMALL
No Charge or Current Charge


@<TRIPOS>ATOM
      1 C1          25.6350    44.7170    -7.3460 c5         1 GTK       0.378300
      2 O1          26.3210    44.3890    -8.5520 oh         1 GTK      -0.744000
      3 C2          24.4960    45.7930    -7.5240 c5         1 GTK       0.146300
      4 O2          24.1640    46.4490    -6.2810 oh         1 GTK      -0.701000
      5 C3          23.2830    44.9170    -8.0350 c5         1 GTK       0.100300
      6 O3          23.0000    45.1380    -9.4310 oh         1 GTK      -0.726000
      7 C4          23.7590    43.4400    -7.7520 c5         1 GTK       0.144300
      8 O4          24.9230    43.5600    -6.9010 os         1 GTK      -0.435000
      9 C5          22.7010    42.4800    -7.1300 c3         1 GTK       0.015300
     10 O5          22.1520    43.0090    -5.8840 oh         1 GTK      -0.763000
     11 C6          23.3030    41.0420    -6.9490 c          1 GTK       0.705000
     12 O6B         23.4710    40.3450    -7.9400 o          1 GTK      -0.714500
     13 O6A         23.4540    40.6350    -5.8020 o          1 GTK      -0.714500
     14 H1          26.3560    45.0370    -6.5810 h2         1 GTK       0.065700
     15 HO1         26.8250    43.5740    -8.3380 ho         1 GTK       0.509000
     16 H2          24.7920    46.5410    -8.2730 h1         1 GTK       0.053700
     17 HO2         23.4400    47.0860    -6.4800 ho         1 GTK       0.499000
     18 H3          22.3850    45.1460    -7.4440 h1         1 GTK       0.050700
     19 HO3         22.1540    44.6740    -9.6350 ho         1 GTK       0.502000
     20 H4          24.0900    42.9810    -8.6950 h1         1 GTK       0.063700
     21 H5          21.8870    42.3840    -7.8620 h1         1 GTK       0.024700
     22 HO5         22.5320    42.4200    -5.1830 ho         1 GTK       0.541000
@<TRIPOS>BOND
     1     1     2 1   
     2     1     3 1   
     3     1     8 1   
     4     1    14 1   
     5     2    15 1   
     6     3     4 1   
     7     3     5 1   
     8     3    16 1   
     9     4    17 1   
    10     5     6 1   
    11     5     7 1   
    12     5    18 1   
    13     6    19 1   
    14     7     8 1   
    15     7     9 1   
    16     7    20 1   
    17     9    10 1   
    18     9    11 1   
    19     9    21 1   
    20    10    22 1   
    21    11    12 1   
    22    11    13 1   
@<TRIPOS>SUBSTRUCTURE
     1 GTK         1 TEMP              0 ****  ****    0 ROOT
