@<TRIPOS>MOLECULE
GTK
   22    22     1     0     0
SMALL
abcg2


@<TRIPOS>ATOM
      1 C1          25.5690    44.6530    -7.3930 c5         1 GTK       0.378300
      2 O1          26.2380    44.6410    -8.6160 oh         1 GTK      -0.744000
      3 C2          24.4420    45.6760    -7.4870 c5         1 GTK       0.146300
      4 O2          24.1510    46.0960    -6.1780 oh         1 GTK      -0.701000
      5 C3          23.3070    44.8590    -8.1230 c5         1 GTK       0.100300
      6 O3          23.2430    45.1580    -9.4980 oh         1 GTK      -0.726000
      7 C4          23.7050    43.3890    -7.8420 c5         1 GTK       0.144300
      8 O4          24.9290    43.4440    -7.1180 os         1 GTK      -0.435000
      9 C5          22.6870    42.5790    -7.0560 c3         1 GTK       0.015300
     10 O5          22.3560    43.1780    -5.8340 oh         1 GTK      -0.763000
     11 C6          23.2070    41.1400    -6.8030 c          1 GTK       0.705000
     12 O6B         23.4880    40.4500    -7.7940 o          1 GTK      -0.714500
     13 O6A         23.2840    40.8250    -5.5950 o          1 GTK      -0.714500
     14 H1          26.2550    44.8520    -6.5600 h2         1 GTK       0.065700
     15 HO1         26.9760    44.0240    -8.5590 ho         1 GTK       0.509000
     16 H2          24.7190    46.5200    -8.1310 h1         1 GTK       0.053700
     17 HO2         23.3740    46.6630    -6.2070 ho         1 GTK       0.499000
     18 H3          22.3550    45.1040    -7.6340 h1         1 GTK       0.050700
     19 HO3         22.5450    44.6240    -9.8910 ho         1 GTK       0.502000
     20 H4          23.8580    42.8840    -8.8040 h1         1 GTK       0.063700
     21 H5          21.7950    42.5040    -7.6970 h1         1 GTK       0.024700
     22 HO5         22.6390    42.4950    -5.1960 ho         1 GTK       0.541000
@<TRIPOS>BOND
     1     1     2 1   
     2     1     3 1   
     3     1     8 1   
     4     1    14 1   
     5     2    15 1   
     6     3     4 1   
     7     3     5 1   
     8     3    16 1   
     9     4    17 1   
    10     5     6 1   
    11     5     7 1   
    12     5    18 1   
    13     6    19 1   
    14     7     8 1   
    15     7     9 1   
    16     7    20 1   
    17     9    10 1   
    18     9    11 1   
    19     9    21 1   
    20    10    22 1   
    21    11    12 1   
    22    11    13 1   
@<TRIPOS>SUBSTRUCTURE
     1 GTK         1 TEMP              0 ****  ****    0 ROOT
