@<TRIPOS>MOLECULE
GTL
   25    25     1     0     0
SMALL
No Charge or Current Charge


@<TRIPOS>ATOM
      1 C1          -0.7900     0.9040    -0.0900 c2         1 GTL       0.583200
      2 N1          -1.4580     2.0050    -0.2610 n2         1 GTL      -0.445700
      3 C2          -1.3710    -0.5460    -0.1120 c6         1 GTL       0.082000
      4 N5           0.5660     1.0860     0.0940 nu         1 GTL      -0.881400
      5 O7          -2.8570     1.8810    -0.4750 oh         1 GTL      -0.541000
      6 O2          -2.7110    -0.6410     0.4450 oh         1 GTL      -0.735000
      7 C3          -0.4360    -1.5650     0.6050 c6         1 GTL       0.140300
      8 O3          -0.9060    -2.9040     0.3580 oh         1 GTL      -0.670000
      9 C4           1.0420    -1.4000     0.1430 c6         1 GTL       0.169300
     10 O4           1.1590    -1.6970    -1.2670 oh         1 GTL      -0.712000
     11 C5           1.5340     0.0420     0.5140 c6         1 GTL       0.241500
     12 C6           2.9710     0.3510    -0.0260 c3         1 GTL       0.155600
     13 O6           3.4440     1.6590     0.3630 oh         1 GTL      -0.672000
     14 H2          -1.4090    -0.8250    -1.1750 h1         1 GTL       0.073700
     15 H5           0.8860     2.0520     0.0620 hn         1 GTL       0.504000
     16 H7          -3.1850     2.8060    -0.6210 ho         1 GTL       0.470000
     17 HA          -3.1070     0.2490     0.2270 ho         1 GTL       0.542000
     18 H3          -0.4720    -1.3560     1.6850 h1         1 GTL       0.053700
     19 HC          -1.8850    -2.8490     0.4680 ho         1 GTL       0.471000
     20 H4           1.6560    -2.1120     0.7150 h1         1 GTL       0.053700
     21 HD           0.6360    -2.5240    -1.3960 ho         1 GTL       0.523000
     22 HB           1.6030     0.0700     1.6120 h1         1 GTL       0.052700
     23 H6C1         2.9560     0.2710    -1.1220 h1         1 GTL       0.044200
     24 H6C2         3.6520    -0.4250     0.3490 h1         1 GTL       0.044200
     25 H6           4.3380     1.7720    -0.0330 ho         1 GTL       0.453000
@<TRIPOS>BOND
     1     1     2 2   
     2     1     3 1   
     3     1     4 1   
     4     2     5 1   
     5     3     6 1   
     6     3     7 1   
     7     3    14 1   
     8     4    11 1   
     9     4    15 1   
    10     5    16 1   
    11     6    17 1   
    12     7     8 1   
    13     7     9 1   
    14     7    18 1   
    15     8    19 1   
    16     9    10 1   
    17     9    11 1   
    18     9    20 1   
    19    10    21 1   
    20    11    12 1   
    21    11    22 1   
    22    12    13 1   
    23    12    23 1   
    24    12    24 1   
    25    13    25 1   
@<TRIPOS>SUBSTRUCTURE
     1 GTL         1 TEMP              0 ****  ****    0 ROOT
