@<TRIPOS>MOLECULE
GTL
   25    25     1     0     0
SMALL
bcc


@<TRIPOS>ATOM
      1 C1          -0.7360     0.9230    -0.1380 c2         1 GTL       0.583200
      2 N1          -1.3910     2.0130    -0.3120 n2         1 GTL      -0.544200
      3 C2          -1.3450    -0.4720    -0.1000 c6         1 GTL       0.058800
      4 N5           0.6180     1.0240    -0.0810 nu         1 GTL      -0.826200
      5 O7          -2.7360     1.7880    -0.6230 oh         1 GTL      -0.403500
      6 O2          -2.5640    -0.5140     0.5980 oh         1 GTL      -0.612800
      7 C3          -0.4360    -1.4860     0.5930 c6         1 GTL       0.117100
      8 O3          -0.8670    -2.8010     0.3460 oh         1 GTL      -0.607800
      9 C4           1.0020    -1.3650     0.1190 c6         1 GTL       0.146100
     10 O4           1.1200    -1.5500    -1.2700 oh         1 GTL      -0.589800
     11 C5           1.4950     0.0230     0.4860 c6         1 GTL       0.241500
     12 C6           2.9160     0.2720     0.0120 c3         1 GTL       0.132400
     13 O6           3.3210     1.5340     0.4950 oh         1 GTL      -0.609800
     14 H2          -1.4700    -0.7850    -1.1480 h1         1 GTL       0.073700
     15 H5           0.9770     1.9680    -0.0880 hn         1 GTL       0.448800
     16 H7          -3.1650     2.6200    -0.4030 ho         1 GTL       0.431000
     17 HA          -3.1270     0.1770     0.2220 ho         1 GTL       0.443000
     18 H3          -0.4470    -1.2620     1.6710 h1         1 GTL       0.053700
     19 HC          -1.7940    -2.8780     0.5980 ho         1 GTL       0.432000
     20 H4           1.6120    -2.0920     0.6730 h1         1 GTL       0.053700
     21 HD           0.7710    -2.4210    -1.4890 ho         1 GTL       0.424000
     22 HB           1.4990     0.0710     1.5860 h1         1 GTL       0.052700
     23 H6C1         2.9540     0.2300    -1.0800 h1         1 GTL       0.044200
     24 H6C2         3.5560    -0.5320     0.3990 h1         1 GTL       0.044200
     25 H6           4.0930     1.8170    -0.0030 ho         1 GTL       0.414000
@<TRIPOS>BOND
     1     1     2 2   
     2     1     3 1   
     3     1     4 1   
     4     2     5 1   
     5     3     6 1   
     6     3     7 1   
     7     3    14 1   
     8     4    11 1   
     9     4    15 1   
    10     5    16 1   
    11     6    17 1   
    12     7     8 1   
    13     7     9 1   
    14     7    18 1   
    15     8    19 1   
    16     9    10 1   
    17     9    11 1   
    18     9    20 1   
    19    10    21 1   
    20    11    12 1   
    21    11    22 1   
    22    12    13 1   
    23    12    23 1   
    24    12    24 1   
    25    13    25 1   
@<TRIPOS>SUBSTRUCTURE
     1 GTL         1 TEMP              0 ****  ****    0 ROOT
