@<TRIPOS>MOLECULE
GTM
   27    27     1     0     0
SMALL
bcc


@<TRIPOS>ATOM
      1 C1           0.0370    -0.2060     1.5010 c6         1 GTM       0.315900
      2 C2          -1.3160     0.2820     0.9950 c6         1 GTM       0.088100
      3 C3          -1.4860    -0.1390    -0.4620 c6         1 GTM       0.153100
      4 C4          -0.2920     0.3210    -1.2920 c6         1 GTM       0.010400
      5 C5           1.0140    -0.1450    -0.6360 c6         1 GTM       0.170100
      6 C6           2.2440     0.3880    -1.3440 c3         1 GTM       0.143400
      7 O1           0.2150     0.2460     2.7890 os         1 GTM      -0.404600
      8 O2          -2.3800    -0.2830     1.7180 oh         1 GTM      -0.602800
      9 O3          -2.6470     0.4150    -1.0250 oh         1 GTM      -0.603800
     10 S4          -0.3740    -0.3590    -2.9860 sh         1 GTM      -0.407900
     11 O5           1.0560     0.3220     0.6930 os         1 GTM      -0.420600
     12 O6           3.3850    -0.1430    -0.7180 oh         1 GTM      -0.587800
     13 H1           0.0710    -1.3120     1.4620 h2         1 GTM       0.034700
     14 H2          -1.3270     1.3820     1.0500 h1         1 GTM       0.068700
     15 H3          -1.5200    -1.2390    -0.4970 h1         1 GTM       0.057700
     16 H4          -0.2890     1.4150    -1.3480 h1         1 GTM       0.093700
     17 H5           1.0430    -1.2470    -0.6540 h1         1 GTM       0.060700
     18 H6C1         2.1960     0.1040    -2.4010 h1         1 GTM       0.039200
     19 H6C2         2.2250     1.4860    -1.3090 h1         1 GTM       0.039200
     20 H7C1         1.2080    -0.0550     4.5290 h1         1 GTM       0.039367
     21 H7C2         1.2540    -1.4420     3.4260 h1         1 GTM       0.039367
     22 H7C3         2.2630    -0.0170     3.1070 h1         1 GTM       0.039367
     23 HB          -2.3900     0.1020     2.6010 ho         1 GTM       0.427000
     24 HA          -3.4120     0.0370    -0.5780 ho         1 GTM       0.430000
     25 HS4         -1.6200     0.0370    -3.2620 hs         1 GTM       0.242800
     26 H6           4.1530     0.1140    -1.2370 ho         1 GTM       0.407000
     27 C7           1.2940    -0.3490     3.4850 c3         1 GTM       0.128700
@<TRIPOS>BOND
     1     1     2 1   
     2     1     7 1   
     3     1    11 1   
     4     1    13 1   
     5     2     3 1   
     6     2     8 1   
     7     2    14 1   
     8     3     4 1   
     9     3     9 1   
    10     3    15 1   
    11     4     5 1   
    12     4    10 1   
    13     4    16 1   
    14     5     6 1   
    15     5    11 1   
    16     5    17 1   
    17     6    12 1   
    18     6    18 1   
    19     6    19 1   
    20     7    27 1   
    21     8    23 1   
    22     9    24 1   
    23    10    25 1   
    24    12    26 1   
    25    20    27 1   
    26    21    27 1   
    27    22    27 1   
@<TRIPOS>SUBSTRUCTURE
     1 GTM         1 TEMP              0 ****  ****    0 ROOT
