@<TRIPOS>MOLECULE
GTM
   27    27     1     0     0
SMALL
No Charge or Current Charge


@<TRIPOS>ATOM
      1 C1          -0.0310    -0.2550     1.5120 c6         1 GTM       0.362300
      2 C2          -1.3830     0.2920     0.9540 c6         1 GTM       0.111300
      3 C3          -1.5250    -0.1600    -0.5260 c6         1 GTM       0.176300
      4 C4          -0.2870     0.2920    -1.3570 c6         1 GTM       0.058300
      5 C5           1.0290    -0.1830    -0.6650 c6         1 GTM       0.193300
      6 C6           2.3150     0.3590    -1.3760 c3         1 GTM       0.166600
      7 O1           0.1440     0.1550     2.8800 os         1 GTM      -0.451000
      8 O2          -2.5240    -0.1390     1.7380 oh         1 GTM      -0.725000
      9 O3          -2.7410     0.3720    -1.0780 oh         1 GTM      -0.666000
     10 S4          -0.4230    -0.3990    -3.1030 sh         1 GTM      -0.455800
     11 O5           1.0500     0.2640     0.7170 os         1 GTM      -0.467000
     12 O6           3.5410    -0.0250    -0.7170 oh         1 GTM      -0.710000
     13 H1          -0.0320    -1.3550     1.4630 h2         1 GTM       0.034700
     14 H2          -1.3180     1.3910     0.9710 h1         1 GTM       0.068700
     15 H3          -1.5630    -1.2600    -0.5420 h1         1 GTM       0.057700
     16 H4          -0.2800     1.3910    -1.4060 h1         1 GTM       0.093700
     17 H5           1.0700    -1.2820    -0.6800 h1         1 GTM       0.060700
     18 H6C1         2.3210    -0.0090    -2.4110 h1         1 GTM       0.039200
     19 H6C2         2.2410     1.4550    -1.4230 h1         1 GTM       0.039200
     20 H7C1         1.3190    -0.0270     4.5980 h1         1 GTM       0.039367
     21 H7C2         1.2660    -1.4760     3.5700 h1         1 GTM       0.039367
     22 H7C3         2.2230    -0.0590     3.0700 h1         1 GTM       0.039367
     23 HB          -2.2810     0.0120     2.6840 ho         1 GTM       0.526000
     24 HA          -3.3940     0.3030    -0.3440 ho         1 GTM       0.469000
     25 HS4         -1.7040     0.0130    -3.2890 hs         1 GTM       0.242800
     26 H6           4.2780     0.4220    -1.1940 ho         1 GTM       0.506000
     27 C7           1.2940    -0.3780     3.5590 c3         1 GTM       0.151900
@<TRIPOS>BOND
     1     1     2 1   
     2     1     7 1   
     3     1    11 1   
     4     1    13 1   
     5     2     3 1   
     6     2     8 1   
     7     2    14 1   
     8     3     4 1   
     9     3     9 1   
    10     3    15 1   
    11     4     5 1   
    12     4    10 1   
    13     4    16 1   
    14     5     6 1   
    15     5    11 1   
    16     5    17 1   
    17     6    12 1   
    18     6    18 1   
    19     6    19 1   
    20     7    27 1   
    21     8    23 1   
    22     9    24 1   
    23    10    25 1   
    24    12    26 1   
    25    20    27 1   
    26    21    27 1   
    27    22    27 1   
@<TRIPOS>SUBSTRUCTURE
     1 GTM         1 TEMP              0 ****  ****    0 ROOT
