@<TRIPOS>MOLECULE
GTQ
   16    16     1     0     0
SMALL
No Charge or Current Charge


@<TRIPOS>ATOM
      1 OAA         -1.8830    -1.8780    -0.2150 o          1 GTQ      -0.701000
      2 OAB         -2.7180     0.1030    -0.1370 o          1 GTQ      -0.701000
      3 OAD         -1.2190     2.1800    -0.0190 oh         1 GTQ      -0.627100
      4 CAE          2.2520     1.0140    -0.0180 ca         1 GTQ      -0.104000
      5 CAF          1.1350     1.8630     0.0030 ca         1 GTQ      -0.195000
      6 CAG          0.7700    -0.9150    -0.1290 ca         1 GTQ      -0.096000
      7 CAH         -1.7640    -0.6640    -0.1570 c          1 GTQ       0.717600
      8 CAI          2.0690    -0.3760    -0.0840 ca         1 GTQ       0.021100
      9 CAJ         -0.1610     1.3290    -0.0410 ca         1 GTQ       0.185100
     10 CAK         -0.3680    -0.0700    -0.1080 ca         1 GTQ      -0.232600
     11 HOAC         2.8510    -2.1310    -0.1520 ho         1 GTQ       0.441000
     12 HOAD        -2.0180     1.5760    -0.0590 ho         1 GTQ       0.545000
     13 HAE          3.2550     1.4320     0.0170 ha         1 GTQ       0.094000
     14 HAF          1.2760     2.9400     0.0550 ha         1 GTQ       0.104000
     15 HAG          0.6450    -1.9950    -0.1810 ha         1 GTQ       0.122000
     16 OAC          3.1580    -1.1990    -0.1050 oh         1 GTQ      -0.570100
@<TRIPOS>BOND
     1     1     7 1   
     2     2     7 1   
     3     3     9 1   
     4     3    12 1   
     5     4     5 ar  
     6     4     8 ar  
     7     4    13 1   
     8     5     9 ar  
     9     5    14 1   
    10     6     8 ar  
    11     6    10 ar  
    12     6    15 1   
    13     7    10 1   
    14     8    16 1   
    15     9    10 ar  
    16    11    16 1   
@<TRIPOS>SUBSTRUCTURE
     1 GTQ         1 TEMP              0 ****  ****    0 ROOT
