@<TRIPOS>MOLECULE
GTQ
   16    16     1     0     0
SMALL
bcc


@<TRIPOS>ATOM
      1 OAA         -1.9640    -1.8400     0.0710 o          1 GTQ      -0.806300
      2 OAB         -2.6250     0.1880    -0.5480 o          1 GTQ      -0.806300
      3 OAD         -1.2220     2.1420     0.0680 oh         1 GTQ      -0.588100
      4 CAE          2.2150     0.9680    -0.0250 ca         1 GTQ      -0.122000
      5 CAF          1.1290     1.8310     0.0150 ca         1 GTQ      -0.213000
      6 CAG          0.7500    -0.9240    -0.0110 ca         1 GTQ      -0.114000
      7 CAH         -1.7570    -0.6340    -0.1120 c          1 GTQ       0.928200
      8 CAI          2.0400    -0.4080    -0.0310 ca         1 GTQ       0.021100
      9 CAJ         -0.1700     1.3200     0.0280 ca         1 GTQ       0.185100
     10 CAK         -0.3540    -0.0810     0.0000 ca         1 GTQ      -0.232600
     11 HOAC         3.0190    -1.9640    -0.5980 ho         1 GTQ       0.402000
     12 HOAD        -1.9940     1.5150    -0.1850 ho         1 GTQ       0.506000
     13 HAE          3.2060     1.3940    -0.0240 ha         1 GTQ       0.112000
     14 HAF          1.2750     2.9020     0.0620 ha         1 GTQ       0.122000
     15 HAG          0.5850    -1.9960    -0.0220 ha         1 GTQ       0.140000
     16 OAC          3.1480    -1.2040    -0.0190 oh         1 GTQ      -0.531100
@<TRIPOS>BOND
     1     1     7 1   
     2     2     7 1   
     3     3     9 1   
     4     3    12 1   
     5     4     5 ar  
     6     4     8 ar  
     7     4    13 1   
     8     5     9 ar  
     9     5    14 1   
    10     6     8 ar  
    11     6    10 ar  
    12     6    15 1   
    13     7    10 1   
    14     8    16 1   
    15     9    10 ar  
    16    11    16 1   
@<TRIPOS>SUBSTRUCTURE
     1 GTQ         1 TEMP              0 ****  ****    0 ROOT
