@<TRIPOS>MOLECULE
GTR
   22    22     1     0     0
SMALL
bcc


@<TRIPOS>ATOM
      1 C1          17.9050    46.2750    -4.6960 c6         1 GTR       0.350900
      2 C2          18.6480    46.6850    -5.9640 c6         1 GTR       0.124100
      3 C3          19.0830    45.4260    -6.7050 c6         1 GTR       0.103100
      4 C4          19.9030    44.5130    -5.8000 c6         1 GTR       0.124100
      5 C5          19.0820    44.2350    -4.5380 c6         1 GTR      -0.026900
      6 C6          19.8410    43.4080    -3.4710 c          1 GTR       0.947600
      7 O1          17.5910    47.4050    -3.9720 oh         1 GTR      -0.576800
      8 O2          17.7790    47.4690    -6.7460 oh         1 GTR      -0.606800
      9 O3          19.7750    45.8380    -7.8620 oh         1 GTR      -0.600800
     10 O4          21.1370    45.1060    -5.5070 oh         1 GTR      -0.640800
     11 O5          18.7240    45.4520    -3.9030 os         1 GTR      -0.407600
     12 O6A         19.1660    42.6760    -2.7400 o          1 GTR      -0.807300
     13 O6B         21.0880    43.5740    -3.4240 o          1 GTR      -0.807300
     14 H1          16.9980    45.7110    -4.9830 h2         1 GTR       0.003700
     15 H2          19.5410    47.2550    -5.6680 h1         1 GTR       0.084700
     16 H3          18.1710    44.8730    -6.9820 h1         1 GTR       0.017700
     17 H4          20.0330    43.5460    -6.3190 h1         1 GTR       0.013700
     18 H5          18.1750    43.6850    -4.8340 h1         1 GTR       0.021700
     19 HO1         16.9230    47.1850    -3.3140 ho         1 GTR       0.406000
     20 HO2         18.1960    47.5950    -7.6050 ho         1 GTR       0.406000
     21 HO3         19.8240    45.0950    -8.4710 ho         1 GTR       0.396000
     22 HO4         21.4190    44.6310    -4.6890 ho         1 GTR       0.476000
@<TRIPOS>BOND
     1     1     2 1   
     2     1     7 1   
     3     1    11 1   
     4     1    14 1   
     5     2     3 1   
     6     2     8 1   
     7     2    15 1   
     8     3     4 1   
     9     3     9 1   
    10     3    16 1   
    11     4     5 1   
    12     4    10 1   
    13     4    17 1   
    14     5     6 1   
    15     5    11 1   
    16     5    18 1   
    17     6    12 1   
    18     6    13 1   
    19     7    19 1   
    20     8    20 1   
    21     9    21 1   
    22    10    22 1   
@<TRIPOS>SUBSTRUCTURE
     1 GTR         1 TEMP              0 ****  ****    0 ROOT
