@<TRIPOS>MOLECULE
GTR
   22    22     1     0     0
SMALL
No Charge or Current Charge


@<TRIPOS>ATOM
      1 C1          17.9330    46.3600    -4.6670 c6         1 GTR       0.397300
      2 C2          18.5560    46.6700    -6.0790 c6         1 GTR       0.147300
      3 C3          18.9230    45.3290    -6.7950 c6         1 GTR       0.126300
      4 C4          19.7900    44.4210    -5.8680 c6         1 GTR       0.147300
      5 C5          19.0500    44.2210    -4.5170 c6         1 GTR      -0.003700
      6 C6          19.8190    43.2020    -3.6070 c          1 GTR       0.737000
      7 O1          17.7810    47.5240    -3.8750 oh         1 GTR      -0.699000
      8 O2          17.6910    47.4550    -6.9400 oh         1 GTR      -0.729000
      9 O3          19.6380    45.5940    -8.0140 oh         1 GTR      -0.723000
     10 O4          21.0760    45.0360    -5.6610 oh         1 GTR      -0.763000
     11 O5          18.8180    45.5280    -3.9050 os         1 GTR      -0.454000
     12 O6A         19.2830    42.1080    -3.4810 o          1 GTR      -0.702000
     13 O6B         20.4600    43.6740    -2.6750 o          1 GTR      -0.702000
     14 H1          16.9620    45.8560    -4.7790 h2         1 GTR       0.003700
     15 H2          19.4900    47.2220    -5.9000 h1         1 GTR       0.084700
     16 H3          17.9900    44.7920    -7.0230 h1         1 GTR       0.017700
     17 H4          19.9170    43.4410    -6.3510 h1         1 GTR       0.013700
     18 H5          18.0690    43.7700    -4.7260 h1         1 GTR       0.021700
     19 HO1         18.0860    47.2230    -2.9920 ho         1 GTR       0.505000
     20 HO2         18.0270    47.2780    -7.8510 ho         1 GTR       0.505000
     21 HO3         20.5880    45.5280    -7.7470 ho         1 GTR       0.495000
     22 HO4         21.0530    45.4040    -4.7420 ho         1 GTR       0.575000
@<TRIPOS>BOND
     1     1     2 1   
     2     1     7 1   
     3     1    11 1   
     4     1    14 1   
     5     2     3 1   
     6     2     8 1   
     7     2    15 1   
     8     3     4 1   
     9     3     9 1   
    10     3    16 1   
    11     4     5 1   
    12     4    10 1   
    13     4    17 1   
    14     5     6 1   
    15     5    11 1   
    16     5    18 1   
    17     6    12 1   
    18     6    13 1   
    19     7    19 1   
    20     8    20 1   
    21     9    21 1   
    22    10    22 1   
@<TRIPOS>SUBSTRUCTURE
     1 GTR         1 TEMP              0 ****  ****    0 ROOT
