@<TRIPOS>MOLECULE
GTU
   44    46     1     0     0
SMALL
No Charge or Current Charge


@<TRIPOS>ATOM
      1 C1         -17.4160   -35.4430    -9.0030 c1         1 GTU      -0.113100
      2 C2         -17.3860   -36.6310    -8.7720 c1         1 GTU      -0.126100
      3 C3         -17.3840   -38.0910    -8.5230 c6         1 GTU       0.334600
      4 C4         -16.7980   -38.8120    -9.7670 c6         1 GTU      -0.140400
      5 C5         -16.5150   -40.2690    -9.3940 c6         1 GTU       0.167600
      6 C6         -15.8140   -39.4000    -7.2670 c2         1 GTU       0.824500
      7 N1         -16.5110   -38.3400    -7.3540 n2         1 GTU      -0.763900
      8 N3         -22.7940   -42.2470    -3.0990 nb         1 GTU      -0.620000
      9 O1         -22.8830   -41.2180    -5.7430 o          1 GTU      -0.538100
     10 C7         -18.8570   -38.5520    -8.2470 ca         1 GTU      -0.092300
     11 C8         -19.2140   -39.2180    -7.0420 ca         1 GTU      -0.120000
     12 C9         -20.5310   -39.6500    -6.7900 ca         1 GTU      -0.044000
     13 C10        -21.8790   -41.0110    -5.0620 c          1 GTU       0.513600
     14 C11        -21.7520   -41.5290    -3.6170 ca         1 GTU       0.307500
     15 C12        -22.7100   -42.7160    -1.8300 ca         1 GTU       0.377900
     16 C13        -21.5950   -42.5010    -1.0080 ca         1 GTU      -0.055000
     17 C14        -20.5130   -41.7660    -1.5180 ca         1 GTU      -0.040000
     18 C15        -20.5940   -41.2760    -2.8340 ca         1 GTU      -0.146000
     19 C19        -19.8910   -38.3250    -9.1940 ca         1 GTU       0.156000
     20 N          -14.9600   -39.6340    -6.2750 nv         1 GTU      -1.026200
     21 O          -15.6210   -40.2890    -8.2710 os         1 GTU      -0.485600
     22 C          -17.4840   -34.0090    -9.3010 c3         1 GTU      -0.004000
     23 C18        -21.2050   -38.7450    -8.9440 ca         1 GTU      -0.133000
     24 C17        -21.5310   -39.4040    -7.7510 ca         1 GTU      -0.099000
     25 C16        -21.5740   -43.0260     0.3240 cg         1 GTU       0.318000
     26 N4         -21.5470   -43.4500     1.4110 n1         1 GTU      -0.428000
     27 H1         -15.8580   -38.3360   -10.0810 hc         1 GTU       0.075700
     28 H2         -17.4690   -38.7670   -10.6320 hc         1 GTU       0.075700
     29 H3         -17.4500   -40.7800    -9.1210 h1         1 GTU       0.064200
     30 H4         -16.0590   -40.8100   -10.2360 h1         1 GTU       0.064200
     31 H5         -20.0080   -40.2340    -4.8990 hn         1 GTU       0.157000
     32 H6         -18.4680   -39.4140    -6.2770 ha         1 GTU       0.132000
     33 H7         -23.5690   -43.2820    -1.4690 h4         1 GTU       0.040100
     34 H8         -19.6290   -41.5760    -0.9120 ha         1 GTU       0.137000
     35 H9         -19.7570   -40.7060    -3.2260 ha         1 GTU       0.136000
     36 H10        -14.1820   -40.1850    -6.6070 hn         1 GTU       0.487000
     37 H11        -14.6980   -38.7730    -5.8170 hn         1 GTU       0.487000
     38 H12        -17.5150   -33.4280    -8.3720 hc         1 GTU       0.050700
     39 H13        -16.6070   -33.6980    -9.8790 hc         1 GTU       0.050700
     40 H14        -18.3850   -33.7840    -9.8840 hc         1 GTU       0.050700
     41 H15        -21.9790   -38.5520    -9.6840 ha         1 GTU       0.135000
     42 H16        -22.5630   -39.7000    -7.5900 ha         1 GTU       0.150000
     43 F          -19.6520   -37.6880   -10.3640 f          1 GTU      -0.176000
     44 N2         -20.7790   -40.3030    -5.5490 ns         1 GTU      -0.142000
@<TRIPOS>BOND
     1     1     2 3   
     2     1    22 1   
     3     2     3 1   
     4     3     4 1   
     5     3     7 1   
     6     3    10 1   
     7     4     5 1   
     8     4    27 1   
     9     4    28 1   
    10     5    21 1   
    11     5    29 1   
    12     5    30 1   
    13     6     7 2   
    14     6    20 1   
    15     6    21 1   
    16     8    14 ar  
    17     8    15 ar  
    18     9    13 2   
    19    10    11 ar  
    20    10    19 ar  
    21    11    12 ar  
    22    11    32 1   
    23    12    24 ar  
    24    12    44 1   
    25    13    14 1   
    26    13    44 1   
    27    14    18 ar  
    28    15    16 ar  
    29    15    33 1   
    30    16    17 ar  
    31    16    25 1   
    32    17    18 ar  
    33    17    34 1   
    34    18    35 1   
    35    19    23 ar  
    36    19    43 1   
    37    20    36 1   
    38    20    37 1   
    39    22    38 1   
    40    22    39 1   
    41    22    40 1   
    42    23    24 ar  
    43    23    41 1   
    44    24    42 1   
    45    25    26 3   
    46    31    44 1   
@<TRIPOS>SUBSTRUCTURE
     1 GTU         1 TEMP              0 ****  ****    0 ROOT
