@<TRIPOS>MOLECULE
GTU
   44    46     1     0     0
SMALL
abcg2


@<TRIPOS>ATOM
      1 C1         -17.3550   -35.5210    -9.0510 c1         1 GTU      -0.113100
      2 C2         -17.3950   -36.7010    -8.8210 c1         1 GTU      -0.126100
      3 C3         -17.4280   -38.1480    -8.5510 c6         1 GTU       0.334600
      4 C4         -16.9510   -38.9150    -9.8010 c6         1 GTU      -0.140400
      5 C5         -16.6480   -40.3380    -9.4070 c6         1 GTU       0.167600
      6 C6         -15.7720   -39.4070    -7.4340 c2         1 GTU       0.824500
      7 N1         -16.5480   -38.3930    -7.4290 n2         1 GTU      -0.763900
      8 N3         -22.1580   -42.6850    -3.4420 nb         1 GTU      -0.620000
      9 O1         -22.7080   -41.1950    -5.7000 o          1 GTU      -0.538100
     10 C7         -18.8670   -38.5480    -8.2010 ca         1 GTU      -0.092300
     11 C8         -19.1610   -39.2310    -7.0320 ca         1 GTU      -0.120000
     12 C9         -20.4610   -39.6220    -6.7060 ca         1 GTU      -0.044000
     13 C10        -21.7070   -40.9760    -5.0490 c          1 GTU       0.513600
     14 C11        -21.5940   -41.4970    -3.6390 ca         1 GTU       0.307500
     15 C12        -22.1510   -43.1920    -2.2270 ca         1 GTU       0.377900
     16 C13        -21.5920   -42.5230    -1.1360 ca         1 GTU      -0.055000
     17 C14        -21.0140   -41.2750    -1.3380 ca         1 GTU      -0.040000
     18 C15        -21.0120   -40.7550    -2.6190 ca         1 GTU      -0.146000
     19 C19        -19.9340   -38.2550    -9.0410 ca         1 GTU       0.156000
     20 N          -14.9320   -39.6510    -6.3970 nv         1 GTU      -1.026200
     21 O          -15.6780   -40.3670    -8.3610 os         1 GTU      -0.485600
     22 C          -17.3210   -34.0950    -9.3380 c3         1 GTU      -0.004000
     23 C18        -21.2260   -38.6340    -8.7500 ca         1 GTU      -0.133000
     24 C17        -21.5030   -39.3230    -7.5790 ca         1 GTU      -0.099000
     25 C16        -21.6300   -43.1120     0.1610 cg         1 GTU       0.318000
     26 N4         -21.6630   -43.5900     1.2080 n1         1 GTU      -0.428000
     27 H1         -16.0480   -38.4370   -10.1890 hc         1 GTU       0.075700
     28 H2         -17.6890   -38.9030   -10.6010 hc         1 GTU       0.075700
     29 H3         -17.5500   -40.8610    -9.0760 h1         1 GTU       0.064200
     30 H4         -16.2190   -40.8980   -10.2360 h1         1 GTU       0.064200
     31 H5         -19.8180   -40.2760    -4.8810 hn         1 GTU       0.157000
     32 H6         -18.3520   -39.4580    -6.3480 ha         1 GTU       0.132000
     33 H7         -22.6080   -44.1660    -2.0950 h4         1 GTU       0.040100
     34 H8         -20.5820   -40.7230    -0.5140 ha         1 GTU       0.137000
     35 H9         -20.5870   -39.7770    -2.8020 ha         1 GTU       0.136000
     36 H10        -14.1580   -40.2760    -6.5500 hn         1 GTU       0.487000
     37 H11        -14.7370   -38.8710    -5.7920 hn         1 GTU       0.487000
     38 H12        -17.0160   -33.5230    -8.4610 hc         1 GTU       0.050700
     39 H13        -16.6190   -33.8720   -10.1420 hc         1 GTU       0.050700
     40 H14        -18.3030   -33.7350    -9.6450 hc         1 GTU       0.050700
     41 H15        -22.0260   -38.3870    -9.4360 ha         1 GTU       0.135000
     42 H16        -22.5200   -39.6030    -7.3650 ha         1 GTU       0.150000
     43 F          -19.7140   -37.5770   -10.1790 f          1 GTU      -0.176000
     44 N2         -20.6340   -40.2740    -5.4760 ns         1 GTU      -0.142000
@<TRIPOS>BOND
     1     1     2 3   
     2     1    22 1   
     3     2     3 1   
     4     3     4 1   
     5     3     7 1   
     6     3    10 1   
     7     4     5 1   
     8     4    27 1   
     9     4    28 1   
    10     5    21 1   
    11     5    29 1   
    12     5    30 1   
    13     6     7 2   
    14     6    20 1   
    15     6    21 1   
    16     8    14 ar  
    17     8    15 ar  
    18     9    13 2   
    19    10    11 ar  
    20    10    19 ar  
    21    11    12 ar  
    22    11    32 1   
    23    12    24 ar  
    24    12    44 1   
    25    13    14 1   
    26    13    44 1   
    27    14    18 ar  
    28    15    16 ar  
    29    15    33 1   
    30    16    17 ar  
    31    16    25 1   
    32    17    18 ar  
    33    17    34 1   
    34    18    35 1   
    35    19    23 ar  
    36    19    43 1   
    37    20    36 1   
    38    20    37 1   
    39    22    38 1   
    40    22    39 1   
    41    22    40 1   
    42    23    24 ar  
    43    23    41 1   
    44    24    42 1   
    45    25    26 3   
    46    31    44 1   
@<TRIPOS>SUBSTRUCTURE
     1 GTU         1 TEMP              0 ****  ****    0 ROOT
