@<TRIPOS>MOLECULE
GTV
   29    30     1     0     0
SMALL
No Charge or Current Charge


@<TRIPOS>ATOM
      1 C01          5.3850     0.8610    -0.4400 c3         1 GTV      -0.029800
      2 C02          3.8910     0.6570    -0.2350 ca         1 GTV      -0.081300
      3 C03          3.0480     1.7490    -0.0030 ca         1 GTV      -0.173000
      4 C04          1.6600     1.5860     0.2000 ca         1 GTV      -0.007300
      5 C05          0.8960     2.8630     0.5510 c3         1 GTV      -0.043800
      6 C06          1.0750     0.2770     0.1300 ca         1 GTV      -0.094800
      7 C07         -0.3860    -0.0100     0.2420 cc         1 GTV       0.116600
      8 C08         -1.4970     1.0070     0.0900 c3         1 GTV      -0.360200
      9 C13         -0.6890    -1.3410     0.4480 cd         1 GTV      -0.358200
     10 C14          0.2620    -2.4440     0.3830 c          1 GTV       0.674300
     11 C17          1.9680    -0.8150    -0.0330 ca         1 GTV       0.154100
     12 C18          3.3440    -0.6280    -0.2250 ca         1 GTV      -0.153000
     13 O10         -3.8590    -0.2660     0.5070 o          1 GTV      -0.917167
     14 O11         -3.9200     1.7720    -0.8390 o          1 GTV      -0.917167
     15 O12         -2.9870    -0.2820    -1.7830 o          1 GTV      -0.917167
     16 O15         -0.0790    -3.6090     0.5280 o          1 GTV      -0.559000
     17 O16          1.5330    -2.1080     0.0530 os         1 GTV      -0.376200
     18 P09         -3.1570     0.5260    -0.5420 p5         1 GTV       1.283500
     19 H1           5.9110     0.8810     0.5210 hc         1 GTV       0.023700
     20 H2           5.8200     0.0560    -1.0450 hc         1 GTV       0.023700
     21 H3           5.5900     1.8070    -0.9550 hc         1 GTV       0.023700
     22 H4           3.4840     2.7450     0.0350 ha         1 GTV       0.086000
     23 H5           0.3600     3.2670    -0.3140 hc         1 GTV       0.045033
     24 H6           0.1930     2.7040     1.3750 hc         1 GTV       0.045033
     25 H7           1.5740     3.6550     0.8910 hc         1 GTV       0.045033
     26 H8          -1.6830     1.5100     1.0430 hc         1 GTV       0.035200
     27 H9          -1.2020     1.7600    -0.6440 hc         1 GTV       0.035200
     28 H10         -1.7000    -1.6850     0.6040 ha         1 GTV       0.291000
     29 H11          3.9880    -1.4950    -0.3520 ha         1 GTV       0.108000
@<TRIPOS>BOND
     1     1     2 1   
     2     1    19 1   
     3     1    20 1   
     4     1    21 1   
     5     2     3 ar  
     6     2    12 ar  
     7     3     4 ar  
     8     3    22 1   
     9     4     5 1   
    10     4     6 ar  
    11     5    23 1   
    12     5    24 1   
    13     5    25 1   
    14     6     7 1   
    15     6    11 ar  
    16     7     8 1   
    17     7     9 2   
    18     8    18 1   
    19     8    26 1   
    20     8    27 1   
    21     9    10 1   
    22     9    28 1   
    23    10    16 2   
    24    10    17 1   
    25    11    12 ar  
    26    11    17 1   
    27    12    29 1   
    28    13    18 1   
    29    14    18 1   
    30    15    18 1   
@<TRIPOS>SUBSTRUCTURE
     1 GTV         1 TEMP              0 ****  ****    0 ROOT
