@<TRIPOS>MOLECULE
GTV
   29    30     1     0     0
SMALL
abcg2


@<TRIPOS>ATOM
      1 C01          5.3310     0.8380    -0.4040 c3         1 GTV      -0.029800
      2 C02          3.8590     0.6320    -0.2140 ca         1 GTV      -0.081300
      3 C03          3.0090     1.7210    -0.0190 ca         1 GTV      -0.173000
      4 C04          1.6410     1.5960     0.1660 ca         1 GTV      -0.007300
      5 C05          0.8920     2.8740     0.4370 c3         1 GTV      -0.043800
      6 C06          1.0540     0.3010     0.1400 ca         1 GTV      -0.094800
      7 C07         -0.3680    -0.0290     0.2450 cc         1 GTV       0.116600
      8 C08         -1.4590     0.9940     0.1930 c3         1 GTV      -0.360200
      9 C13         -0.7120    -1.3360     0.3690 cd         1 GTV      -0.358200
     10 C14          0.2330    -2.4090     0.3180 c          1 GTV       0.674300
     11 C17          1.9400    -0.7790     0.0100 ca         1 GTV       0.154100
     12 C18          3.3080    -0.6320    -0.1830 ca         1 GTV      -0.153000
     13 O10         -3.7060    -0.5800     0.4130 o          1 GTV      -0.917167
     14 O11         -3.9010     1.8130    -0.4910 o          1 GTV      -0.917167
     15 O12         -2.8160    -0.0180    -1.9350 o          1 GTV      -0.917167
     16 O15         -0.0040    -3.5910     0.4330 o          1 GTV      -0.559000
     17 O16          1.5200    -2.0640     0.0710 os         1 GTV      -0.376200
     18 P09         -3.1290     0.4900    -0.5280 p5         1 GTV       1.283500
     19 H1           5.7960     1.1890     0.5190 hc         1 GTV       0.023700
     20 H2           5.8310    -0.0850    -0.6960 hc         1 GTV       0.023700
     21 H3           5.5290     1.5890    -1.1690 hc         1 GTV       0.023700
     22 H4           3.4390     2.7160     0.0040 ha         1 GTV       0.086000
     23 H5           0.3290     3.2190    -0.4310 hc         1 GTV       0.045033
     24 H6           0.1910     2.7760     1.2620 hc         1 GTV       0.045033
     25 H7           1.6010     3.6600     0.6920 hc         1 GTV       0.045033
     26 H8          -1.6230     1.3820     1.2050 hc         1 GTV       0.035200
     27 H9          -1.1320     1.8490    -0.3950 hc         1 GTV       0.035200
     28 H10         -1.7560    -1.6020     0.4740 ha         1 GTV       0.291000
     29 H11          3.9250    -1.5150    -0.2950 ha         1 GTV       0.108000
@<TRIPOS>BOND
     1     1     2 1   
     2     1    19 1   
     3     1    20 1   
     4     1    21 1   
     5     2     3 ar  
     6     2    12 ar  
     7     3     4 ar  
     8     3    22 1   
     9     4     5 1   
    10     4     6 ar  
    11     5    23 1   
    12     5    24 1   
    13     5    25 1   
    14     6     7 1   
    15     6    11 ar  
    16     7     8 1   
    17     7     9 2   
    18     8    18 1   
    19     8    26 1   
    20     8    27 1   
    21     9    10 1   
    22     9    28 1   
    23    10    16 2   
    24    10    17 1   
    25    11    12 ar  
    26    11    17 1   
    27    12    29 1   
    28    13    18 1   
    29    14    18 1   
    30    15    18 1   
@<TRIPOS>SUBSTRUCTURE
     1 GTV         1 TEMP              0 ****  ****    0 ROOT
