@<TRIPOS>MOLECULE
GTW
   93    95     1     0     0
SMALL
No Charge or Current Charge


@<TRIPOS>ATOM
      1 C4           6.7140     5.0280    -3.1040 c3         1 GTW      -0.134400
      2 C6           5.6790     2.6710    -0.2000 cc         1 GTW      -0.326600
      3 C7           4.9950     1.7760     0.7360 c          1 GTW       0.655700
      4 C10          1.6540     0.1400     0.1230 c          1 GTW       0.595100
      5 C13         -1.5740    -0.5240     0.1780 c          1 GTW       0.580100
      6 C15         -3.4910     0.7520    -0.8600 c3         1 GTW       0.119700
      7 C17         -1.8930     2.7880    -0.9580 ca         1 GTW      -0.083300
      8 C20          0.3970     4.1140     0.0540 ca         1 GTW      -0.088300
      9 C21          1.6290     4.8330     0.5930 c3         1 GTW       0.197100
     10 C24         -1.8340     3.1770     0.3950 ca         1 GTW      -0.100000
     11 C26         -5.1600    -1.2380    -0.8430 c3         1 GTW      -0.292400
     12 C28         -6.8620    -3.5090    -0.6950 c3         1 GTW      -0.336100
     13 C3           6.5080     4.1530    -1.9040 cc         1 GTW       0.452700
     14 S5           4.9860     3.3340    -1.6570 ss         1 GTW      -0.005400
     15 N2           7.4480     3.9480    -0.9900 nd         1 GTW      -0.655000
     16 C1           6.9700     3.0930    -0.0040 cd         1 GTW       0.344900
     17 O44          5.5040     1.3350     1.7550 o          1 GTW      -0.601100
     18 N8           3.7140     1.4760     0.3530 ns         1 GTW      -0.501900
     19 C9           2.7560     0.6410     1.1080 c3         1 GTW       0.040700
     20 C40          2.1950     1.4580     2.3130 c3         1 GTW      -0.098400
     21 C41          1.3290     0.7020     3.3600 c3         1 GTW      -0.064700
     22 C42          2.0690    -0.4980     4.0000 c3         1 GTW      -0.088600
     23 C43          0.8260     1.6750     4.4500 c3         1 GTW      -0.088600
     24 N11          0.8400    -0.8710     0.5850 ns         1 GTW      -0.490900
     25 C12         -0.3270    -1.3970    -0.1520 c3         1 GTW       0.036700
     26 C32         -0.5280    -2.8930     0.2070 c3         1 GTW      -0.076400
     27 C33         -1.7480    -3.6130    -0.4460 c6         1 GTW      -0.059700
     28 C38         -1.6830    -3.6160    -2.0020 c6         1 GTW      -0.074900
     29 C37         -2.8960    -4.3530    -2.6240 c6         1 GTW      -0.072400
     30 C36         -3.0240    -5.7940    -2.0750 c6         1 GTW      -0.077400
     31 C35         -3.0920    -5.7980    -0.5290 c6         1 GTW      -0.072400
     32 C34         -1.8730    -5.0680     0.0860 c6         1 GTW      -0.074900
     33 N14         -2.3430    -0.1610    -0.9100 ns         1 GTW      -0.488900
     34 C25         -4.7450     0.1070    -1.4970 c3         1 GTW      -0.069400
     35 S27         -6.6670    -1.9460    -1.5440 s6         1 GTW       1.077000
     36 O30         -7.7950    -1.0850    -1.1670 o          1 GTW      -0.521000
     37 O29         -6.4210    -2.2350    -2.9620 o          1 GTW      -0.521000
     38 C16         -3.1440     2.1110    -1.5190 c3         1 GTW      -0.045100
     39 C23         -0.6960     3.8340     0.8980 ca         1 GTW      -0.098000
     40 N22          1.6190     6.2640     0.2410 n8         1 GTW      -1.003200
     41 C19          0.3400     3.7190    -1.2960 ca         1 GTW      -0.098000
     42 C18         -0.7970     3.0620    -1.7980 ca         1 GTW      -0.100000
     43 H1           5.8570     5.6960    -3.2470 hc         1 GTW       0.061700
     44 H2           7.6110     5.6480    -2.9930 hc         1 GTW       0.061700
     45 H3           6.8290     4.4200    -4.0080 hc         1 GTW       0.061700
     46 H4          -3.7330     0.9510     0.1930 h1         1 GTW       0.083700
     47 H5           1.6660     4.7390     1.6880 h1         1 GTW       0.035200
     48 H6           2.5380     4.3710     0.1810 h1         1 GTW       0.035200
     49 H7          -2.6720     2.9780     1.0580 ha         1 GTW       0.112500
     50 H8          -4.3810    -1.9920    -0.9870 h1         1 GTW       0.102200
     51 H9          -5.3480    -1.1090     0.2280 h1         1 GTW       0.102200
     52 H10         -6.9260    -3.3020     0.3780 h1         1 GTW       0.104700
     53 H11         -7.7830    -3.9730    -1.0640 h1         1 GTW       0.104700
     54 H12         -5.9890    -4.1270    -0.9300 h1         1 GTW       0.104700
     55 H13          7.6100     2.8220     0.8270 h4         1 GTW       0.059100
     56 H14          3.4080     1.8610    -0.5330 hn         1 GTW       0.344500
     57 H15          3.2920    -0.2430     1.4760 h1         1 GTW       0.088700
     58 H16          3.0370     1.9160     2.8460 hc         1 GTW       0.061200
     59 H17          1.6050     2.2880     1.9130 hc         1 GTW       0.061200
     60 H18          0.4320     0.3190     2.8630 hc         1 GTW       0.057700
     61 H19          1.4420    -0.9770     4.7610 hc         1 GTW       0.034533
     62 H20          2.3190    -1.2600     3.2530 hc         1 GTW       0.034533
     63 H21          2.9990    -0.1700     4.4810 hc         1 GTW       0.034533
     64 H22          0.2550     2.4980     4.0020 hc         1 GTW       0.034533
     65 H23          0.1680     1.1570     5.1590 hc         1 GTW       0.034533
     66 H24          1.6650     2.1040     5.0110 hc         1 GTW       0.034533
     67 H25          0.9990    -1.1910     1.5320 hn         1 GTW       0.330500
     68 H26         -0.1290    -1.3140    -1.2280 h1         1 GTW       0.082700
     69 H27          0.3920    -3.4320    -0.0540 hc         1 GTW       0.056700
     70 H28         -0.6190    -2.9670     1.2990 hc         1 GTW       0.056700
     71 H29         -2.6430    -3.0640    -0.1260 hc         1 GTW       0.046700
     72 H30         -1.6570    -2.5900    -2.3900 hc         1 GTW       0.040450
     73 H31         -0.7530    -4.0970    -2.3340 hc         1 GTW       0.040450
     74 H32         -3.8180    -3.7950    -2.4150 hc         1 GTW       0.039700
     75 H33         -2.7930    -4.3800    -3.7170 hc         1 GTW       0.039700
     76 H34         -3.9210    -6.2730    -2.4900 hc         1 GTW       0.042200
     77 H35         -2.1660    -6.3940    -2.4090 hc         1 GTW       0.042200
     78 H36         -4.0200    -5.3140    -0.1950 hc         1 GTW       0.039700
     79 H37         -3.1310    -6.8320    -0.1620 hc         1 GTW       0.039700
     80 H38         -0.9570    -5.6300    -0.1410 hc         1 GTW       0.040450
     81 H39         -1.9690    -5.0610     1.1810 hc         1 GTW       0.040450
     82 H40         -2.0280    -0.4790    -1.8180 hn         1 GTW       0.325500
     83 H41         -5.5800     0.8160    -1.4210 hc         1 GTW       0.064700
     84 H42         -4.5630    -0.0510    -2.5680 hc         1 GTW       0.064700
     85 H43         -3.0330     1.9570    -2.5990 hc         1 GTW       0.055200
     86 H44         -4.0000     2.7860    -1.4010 hc         1 GTW       0.055200
     87 H45         -0.6680     4.1300     1.9440 ha         1 GTW       0.117000
     88 H46          0.7940     6.6990     0.6690 hn         1 GTW       0.398000
     89 H47          2.4090     6.7270     0.7050 hn         1 GTW       0.398000
     90 H49          1.1780     3.9260    -1.9580 ha         1 GTW       0.117000
     91 H50         -0.8230     2.7700    -2.8450 ha         1 GTW       0.112500
     92 O39          1.5240     0.5920    -1.0080 o          1 GTW      -0.615100
     93 O31         -1.8560    -0.1770     1.3190 o          1 GTW      -0.615100
@<TRIPOS>BOND
     1     1    13 1   
     2     1    43 1   
     3     1    44 1   
     4     1    45 1   
     5     2     3 1   
     6     2    14 1   
     7     2    16 2   
     8     3    17 2   
     9     3    18 1   
    10     4    19 1   
    11     4    24 1   
    12     4    92 2   
    13     5    25 1   
    14     5    33 1   
    15     5    93 2   
    16     6    33 1   
    17     6    34 1   
    18     6    38 1   
    19     6    46 1   
    20     7    10 ar  
    21     7    38 1   
    22     7    42 ar  
    23     8     9 1   
    24     8    39 ar  
    25     8    41 ar  
    26     9    40 1   
    27     9    47 1   
    28     9    48 1   
    29    10    39 ar  
    30    10    49 1   
    31    11    34 1   
    32    11    35 1   
    33    11    50 1   
    34    11    51 1   
    35    12    35 1   
    36    12    52 1   
    37    12    53 1   
    38    12    54 1   
    39    13    14 1   
    40    13    15 2   
    41    15    16 1   
    42    16    55 1   
    43    18    19 1   
    44    18    56 1   
    45    19    20 1   
    46    19    57 1   
    47    20    21 1   
    48    20    58 1   
    49    20    59 1   
    50    21    22 1   
    51    21    23 1   
    52    21    60 1   
    53    22    61 1   
    54    22    62 1   
    55    22    63 1   
    56    23    64 1   
    57    23    65 1   
    58    23    66 1   
    59    24    25 1   
    60    24    67 1   
    61    25    26 1   
    62    25    68 1   
    63    26    27 1   
    64    26    69 1   
    65    26    70 1   
    66    27    28 1   
    67    27    32 1   
    68    27    71 1   
    69    28    29 1   
    70    28    72 1   
    71    28    73 1   
    72    29    30 1   
    73    29    74 1   
    74    29    75 1   
    75    30    31 1   
    76    30    76 1   
    77    30    77 1   
    78    31    32 1   
    79    31    78 1   
    80    31    79 1   
    81    32    80 1   
    82    32    81 1   
    83    33    82 1   
    84    34    83 1   
    85    34    84 1   
    86    35    36 2   
    87    35    37 2   
    88    38    85 1   
    89    38    86 1   
    90    39    87 1   
    91    40    88 1   
    92    40    89 1   
    93    41    42 ar  
    94    41    90 1   
    95    42    91 1   
@<TRIPOS>SUBSTRUCTURE
     1 GTW         1 TEMP              0 ****  ****    0 ROOT
