@<TRIPOS>MOLECULE
GTW
   93    95     1     0     0
SMALL
abcg2


@<TRIPOS>ATOM
      1 C4           6.3590     5.3690    -2.8460 c3         1 GTW      -0.134400
      2 C6           5.3340     2.6750    -0.2300 cc         1 GTW      -0.326600
      3 C7           4.6110     1.7090     0.6230 c          1 GTW       0.655700
      4 C10          1.5310    -0.1240    -0.0150 c          1 GTW       0.595100
      5 C13         -1.5040    -0.8850     0.1520 c          1 GTW       0.580100
      6 C15         -3.1120     0.8080    -0.6440 c3         1 GTW       0.119700
      7 C17         -1.6360     2.8900    -0.7730 ca         1 GTW      -0.083300
      8 C20          0.5870     4.3290     0.2010 ca         1 GTW      -0.088300
      9 C21          1.7940     5.0600     0.7280 c3         1 GTW       0.197100
     10 C24         -1.6590     3.4740     0.4910 ca         1 GTW      -0.100000
     11 C26         -4.7880    -1.0960    -0.5580 c3         1 GTW      -0.292400
     12 C28         -6.5930    -3.2500    -0.3980 c3         1 GTW      -0.336100
     13 C3           6.1830     4.3390    -1.7890 cc         1 GTW       0.452700
     14 S5           4.6560     3.5760    -1.5330 ss         1 GTW      -0.005400
     15 N2           7.1100     3.9500    -0.9680 nd         1 GTW      -0.655000
     16 C1           6.6440     3.0240    -0.0900 cd         1 GTW       0.344900
     17 O44          5.1240     1.2850     1.6490 o          1 GTW      -0.601100
     18 N8           3.3890     1.3490     0.2040 ns         1 GTW      -0.501900
     19 C9           2.5050     0.5070     0.9730 c3         1 GTW       0.040700
     20 C40          1.7400     1.3500     2.0140 c3         1 GTW      -0.098400
     21 C41          0.9490     0.6110     3.0940 c3         1 GTW      -0.064700
     22 C42          1.8390    -0.2870     3.9510 c3         1 GTW      -0.088600
     23 C43          0.2300     1.6350     3.9680 c3         1 GTW      -0.088600
     24 N11          0.8740    -1.2060     0.4320 ns         1 GTW      -0.490900
     25 C12         -0.2930    -1.7360    -0.2450 c3         1 GTW       0.036700
     26 C32         -0.4970    -3.2000     0.1270 c3         1 GTW      -0.076400
     27 C33         -1.7480    -3.8410    -0.4710 c6         1 GTW      -0.059700
     28 C38         -1.8130    -3.7040    -1.9940 c6         1 GTW      -0.074900
     29 C37         -3.0230    -4.4150    -2.5940 c6         1 GTW      -0.072400
     30 C36         -3.0910    -5.8760    -2.1700 c6         1 GTW      -0.077400
     31 C35         -3.0580    -6.0000    -0.6500 c6         1 GTW      -0.072400
     32 C34         -1.8270    -5.3140    -0.0690 c6         1 GTW      -0.074900
     33 N14         -1.9850    -0.0850    -0.8110 ns         1 GTW      -0.488900
     34 C25         -4.3920     0.2070    -1.2340 c3         1 GTW      -0.069400
     35 S27         -6.2840    -1.7470    -1.2980 s6         1 GTW       1.077000
     36 O30         -7.3820    -0.8150    -1.0400 o          1 GTW      -0.521000
     37 O29         -5.9940    -2.0900    -2.6920 o          1 GTW      -0.521000
     38 C16         -2.8310     2.1570    -1.3140 c3         1 GTW      -0.045100
     39 C23         -0.5650     4.1830     0.9680 ca         1 GTW      -0.098000
     40 N22          2.2960     6.0240    -0.2350 n8         1 GTW      -1.003200
     41 C19          0.6090     3.7480    -1.0630 ca         1 GTW      -0.098000
     42 C18         -0.4820     3.0350    -1.5360 ca         1 GTW      -0.100000
     43 H1           5.8830     6.3060    -2.5550 hc         1 GTW       0.061700
     44 H2           7.4200     5.5580    -2.9980 hc         1 GTW       0.061700
     45 H3           5.9190     5.0540    -3.7910 hc         1 GTW       0.061700
     46 H4          -3.2510     0.9620     0.4280 h1         1 GTW       0.083700
     47 H5           1.5500     5.4890     1.7090 h1         1 GTW       0.035200
     48 H6           2.5880     4.3300     0.9090 h1         1 GTW       0.035200
     49 H7          -2.5460     3.3910     1.1110 ha         1 GTW       0.112500
     50 H8          -4.0260    -1.8680    -0.6790 h1         1 GTW       0.102200
     51 H9          -4.9840    -0.9630     0.5070 h1         1 GTW       0.102200
     52 H10         -6.7610    -3.0200     0.6510 h1         1 GTW       0.104700
     53 H11         -7.4840    -3.7050    -0.8290 h1         1 GTW       0.104700
     54 H12         -5.7470    -3.9260    -0.5060 h1         1 GTW       0.104700
     55 H13          7.3070     2.6110     0.6560 h4         1 GTW       0.059100
     56 H14          3.0190     1.6570    -0.6850 hn         1 GTW       0.344500
     57 H15          3.0940    -0.2720     1.4640 h1         1 GTW       0.088700
     58 H16          2.4780     1.9860     2.5150 hc         1 GTW       0.061200
     59 H17          1.0720     2.0230     1.4710 hc         1 GTW       0.061200
     60 H18          0.1740    -0.0020     2.6250 hc         1 GTW       0.057700
     61 H19          1.2660    -0.7380     4.7630 hc         1 GTW       0.034533
     62 H20          2.2910    -1.1050     3.3870 hc         1 GTW       0.034533
     63 H21          2.6520     0.2900     4.3970 hc         1 GTW       0.034533
     64 H22         -0.4160     2.2810     3.3710 hc         1 GTW       0.034533
     65 H23         -0.3930     1.1420     4.7170 hc         1 GTW       0.034533
     66 H24          0.9430     2.2730     4.4950 hc         1 GTW       0.034533
     67 H25          1.0680    -1.5480     1.3610 hn         1 GTW       0.330500
     68 H26         -0.1120    -1.6610    -1.3180 h1         1 GTW       0.082700
     69 H27          0.3870    -3.7520    -0.2060 hc         1 GTW       0.056700
     70 H28         -0.5370    -3.2930     1.2170 hc         1 GTW       0.056700
     71 H29         -2.6270    -3.3410    -0.0380 hc         1 GTW       0.046700
     72 H30         -1.8430    -2.6510    -2.2880 hc         1 GTW       0.040450
     73 H31         -0.8940    -4.1180    -2.4260 hc         1 GTW       0.040450
     74 H32         -3.9410    -3.9050    -2.2820 hc         1 GTW       0.039700
     75 H33         -2.9930    -4.3320    -3.6830 hc         1 GTW       0.039700
     76 H34         -3.9920    -6.3450    -2.5710 hc         1 GTW       0.042200
     77 H35         -2.2390    -6.4190    -2.5940 hc         1 GTW       0.042200
     78 H36         -3.9600    -5.5400    -0.2290 hc         1 GTW       0.039700
     79 H37         -3.0790    -7.0500    -0.3510 hc         1 GTW       0.039700
     80 H38         -0.9250    -5.8270    -0.4250 hc         1 GTW       0.040450
     81 H39         -1.8250    -5.4000     1.0220 hc         1 GTW       0.040450
     82 H40         -1.5000    -0.0590    -1.6960 hn         1 GTW       0.325500
     83 H41         -5.1960     0.9370    -1.1230 hc         1 GTW       0.064700
     84 H42         -4.2470     0.0420    -2.3040 hc         1 GTW       0.064700
     85 H43         -2.7100     1.9990    -2.3900 hc         1 GTW       0.055200
     86 H44         -3.7260     2.7730    -1.1960 hc         1 GTW       0.055200
     87 H45         -0.6100     4.6310     1.9540 ha         1 GTW       0.117000
     88 H46          1.6780     6.8250    -0.2690 hn         1 GTW       0.398000
     89 H47          3.1960     6.3700     0.0660 hn         1 GTW       0.398000
     90 H49          1.4880     3.8570    -1.6860 ha         1 GTW       0.117000
     91 H50         -0.4380     2.5920    -2.5240 ha         1 GTW       0.112500
     92 O39          1.3460     0.3580    -1.1210 o          1 GTW      -0.615100
     93 O31         -1.9690    -0.9490     1.2800 o          1 GTW      -0.615100
@<TRIPOS>BOND
     1     1    13 1   
     2     1    43 1   
     3     1    44 1   
     4     1    45 1   
     5     2     3 1   
     6     2    14 1   
     7     2    16 2   
     8     3    17 2   
     9     3    18 1   
    10     4    19 1   
    11     4    24 1   
    12     4    92 2   
    13     5    25 1   
    14     5    33 1   
    15     5    93 2   
    16     6    33 1   
    17     6    34 1   
    18     6    38 1   
    19     6    46 1   
    20     7    10 ar  
    21     7    38 1   
    22     7    42 ar  
    23     8     9 1   
    24     8    39 ar  
    25     8    41 ar  
    26     9    40 1   
    27     9    47 1   
    28     9    48 1   
    29    10    39 ar  
    30    10    49 1   
    31    11    34 1   
    32    11    35 1   
    33    11    50 1   
    34    11    51 1   
    35    12    35 1   
    36    12    52 1   
    37    12    53 1   
    38    12    54 1   
    39    13    14 1   
    40    13    15 2   
    41    15    16 1   
    42    16    55 1   
    43    18    19 1   
    44    18    56 1   
    45    19    20 1   
    46    19    57 1   
    47    20    21 1   
    48    20    58 1   
    49    20    59 1   
    50    21    22 1   
    51    21    23 1   
    52    21    60 1   
    53    22    61 1   
    54    22    62 1   
    55    22    63 1   
    56    23    64 1   
    57    23    65 1   
    58    23    66 1   
    59    24    25 1   
    60    24    67 1   
    61    25    26 1   
    62    25    68 1   
    63    26    27 1   
    64    26    69 1   
    65    26    70 1   
    66    27    28 1   
    67    27    32 1   
    68    27    71 1   
    69    28    29 1   
    70    28    72 1   
    71    28    73 1   
    72    29    30 1   
    73    29    74 1   
    74    29    75 1   
    75    30    31 1   
    76    30    76 1   
    77    30    77 1   
    78    31    32 1   
    79    31    78 1   
    80    31    79 1   
    81    32    80 1   
    82    32    81 1   
    83    33    82 1   
    84    34    83 1   
    85    34    84 1   
    86    35    36 2   
    87    35    37 2   
    88    38    85 1   
    89    38    86 1   
    90    39    87 1   
    91    40    88 1   
    92    40    89 1   
    93    41    42 ar  
    94    41    90 1   
    95    42    91 1   
@<TRIPOS>SUBSTRUCTURE
     1 GTW         1 TEMP              0 ****  ****    0 ROOT
