@<TRIPOS>MOLECULE
GTX
   54    53     1     0     0
SMALL
No Charge or Current Charge


@<TRIPOS>ATOM
      1 N1          18.2090     0.2390    24.5090 nz         1 GTX      -0.969000
      2 CA1         17.9630     1.6630    25.0250 c3         1 GTX      -0.066700
      3 C1          17.8260     2.7170    23.8680 c          1 GTX       0.717000
      4 O11         16.8280     3.4210    23.8580 o          1 GTX      -0.662500
      5 O12         18.6350     2.6640    22.9530 o          1 GTX      -0.662500
      6 CB1         19.0630     2.0520    26.0390 c3         1 GTX      -0.061400
      7 CG1         18.8250     3.4190    26.7260 c3         1 GTX      -0.151400
      8 CD1         19.8910     3.7080    27.7860 c          1 GTX       0.610100
      9 OE1         21.0320     4.0370    27.4930 o          1 GTX      -0.630100
     10 N2          19.4660     3.5860    29.0900 ns         1 GTX      -0.477900
     11 CA2         20.2900     3.8710    30.2910 c3         1 GTX       0.020700
     12 C2          20.1750     2.7060    31.3130 c          1 GTX       0.573100
     13 O2          19.2900     1.8570    31.2670 o          1 GTX      -0.656100
     14 CB2         19.8710     5.2090    30.9560 c3         1 GTX       0.050600
     15 SG2         19.9390     6.6630    29.7950 ss         1 GTX      -0.463000
     16 C1S         21.7620     6.8220    29.4920 c3         1 GTX       0.064600
     17 C2S         22.4890     7.4020    30.7230 c3         1 GTX      -0.079400
     18 C3S         23.9990     7.6110    30.4800 c3         1 GTX      -0.069400
     19 C4S         24.7340     8.1930    31.7080 c3         1 GTX      -0.085400
     20 C5S         26.2450     8.4030    31.4640 c3         1 GTX      -0.068400
     21 C6S         26.9780     8.9830    32.6880 c3         1 GTX      -0.089100
     22 N3          21.1470     2.6840    32.2910 ns         1 GTX      -0.455900
     23 CA3         21.2450     1.6700    33.3670 c3         1 GTX      -0.064000
     24 C3          22.3570     2.0060    34.4010 c          1 GTX       0.715000
     25 O31         22.2440     1.5530    35.5310 o          1 GTX      -0.725500
     26 O32         23.2740     2.7410    34.0560 o          1 GTX      -0.725500
     27 HN11        18.2970    -0.4690    25.2550 hn         1 GTX       0.493333
     28 HN12        17.4570    -0.1010    23.8880 hn         1 GTX       0.493333
     29 HN13        19.0710     0.1680    23.9440 hn         1 GTX       0.493333
     30 HA1         17.0010     1.6670    25.5450 hx         1 GTX       0.084700
     31 HB11        19.1210     1.2760    26.8130 hc         1 GTX       0.051700
     32 HB12        20.0370     2.0660    25.5320 hc         1 GTX       0.051700
     33 HG11        18.8720     4.2120    25.9720 hc         1 GTX       0.083700
     34 HG12        17.8310     3.4080    27.1900 hc         1 GTX       0.083700
     35 HN2         18.5140     3.2680    29.2310 hn         1 GTX       0.330500
     36 HA2         21.3460     3.9290    30.0000 h1         1 GTX       0.092700
     37 HB21        18.8390     5.1130    31.3210 h1         1 GTX       0.082200
     38 HB22        20.5070     5.4110    31.8280 h1         1 GTX       0.082200
     39 HS11        22.1860     5.8460    29.2270 h1         1 GTX       0.072200
     40 HS12        21.9120     7.4950    28.6370 h1         1 GTX       0.072200
     41 HS21        22.0290     8.3610    30.9900 hc         1 GTX       0.051200
     42 HS22        22.3550     6.7310    31.5790 hc         1 GTX       0.051200
     43 HS31        24.4560     6.6510    30.2070 hc         1 GTX       0.032200
     44 HS32        24.1360     8.2850    29.6250 hc         1 GTX       0.032200
     45 HS41        24.2760     9.1520    31.9810 hc         1 GTX       0.054200
     46 HS42        24.5980     7.5180    32.5630 hc         1 GTX       0.054200
     47 HS51        26.7060     7.4450    31.1930 hc         1 GTX       0.028200
     48 HS52        26.3850     9.0790    30.6110 hc         1 GTX       0.028200
     49 HS61        28.0440     9.1150    32.4680 hc         1 GTX       0.030700
     50 HS62        26.5620     9.9600    32.9630 hc         1 GTX       0.030700
     51 HS63        26.8860     8.3120    33.5500 hc         1 GTX       0.030700
     52 HN3         21.8630     3.4040    32.2560 hn         1 GTX       0.344500
     53 HA31        20.2830     1.6080    33.8920 h1         1 GTX       0.038200
     54 HA32        21.4710     0.6930    32.9220 h1         1 GTX       0.038200
@<TRIPOS>BOND
     1     1     2 1   
     2     1    27 1   
     3     1    28 1   
     4     1    29 1   
     5     2     3 1   
     6     2     6 1   
     7     2    30 1   
     8     3     4 1   
     9     3     5 1   
    10     6     7 1   
    11     6    31 1   
    12     6    32 1   
    13     7     8 1   
    14     7    33 1   
    15     7    34 1   
    16     8     9 2   
    17     8    10 1   
    18    10    11 1   
    19    10    35 1   
    20    11    12 1   
    21    11    14 1   
    22    11    36 1   
    23    12    13 2   
    24    12    22 1   
    25    14    15 1   
    26    14    37 1   
    27    14    38 1   
    28    15    16 1   
    29    16    17 1   
    30    16    39 1   
    31    16    40 1   
    32    17    18 1   
    33    17    41 1   
    34    17    42 1   
    35    18    19 1   
    36    18    43 1   
    37    18    44 1   
    38    19    20 1   
    39    19    45 1   
    40    19    46 1   
    41    20    21 1   
    42    20    47 1   
    43    20    48 1   
    44    21    49 1   
    45    21    50 1   
    46    21    51 1   
    47    22    23 1   
    48    22    52 1   
    49    23    24 1   
    50    23    53 1   
    51    23    54 1   
    52    24    25 1   
    53    24    26 1   
@<TRIPOS>SUBSTRUCTURE
     1 GTX         1 TEMP              0 ****  ****    0 ROOT
