@<TRIPOS>MOLECULE
GTX
   54    53     1     0     0
SMALL
abcg2


@<TRIPOS>ATOM
      1 N1          19.3100     0.8450    23.9200 nz         1 GTX      -0.969000
      2 CA1         18.5270     1.4790    25.0190 c3         1 GTX      -0.066700
      3 C1          17.4700     2.3980    24.3460 c          1 GTX       0.717000
      4 O11         16.4620     2.6510    25.0150 o          1 GTX      -0.662500
      5 O12         17.7810     2.8070    23.2100 o          1 GTX      -0.662500
      6 CB1         19.4890     2.2580    25.9110 c3         1 GTX      -0.061400
      7 CG1         18.8040     2.8710    27.1230 c3         1 GTX      -0.151400
      8 CD1         19.7970     3.4750    28.0950 c          1 GTX       0.610100
      9 OE1         20.9250     3.8010    27.7560 o          1 GTX      -0.630100
     10 N2          19.3230     3.6330    29.3450 ns         1 GTX      -0.477900
     11 CA2         20.0600     4.2340    30.4190 c3         1 GTX       0.020700
     12 C2          20.0260     3.3290    31.6510 c          1 GTX       0.573100
     13 O2          19.0370     2.6580    31.9190 o          1 GTX      -0.656100
     14 CB2         19.4950     5.6030    30.8190 c3         1 GTX       0.050600
     15 SG2         19.6480     6.8740    29.5420 ss         1 GTX      -0.463000
     16 C1S         21.4500     6.9660    29.3190 c3         1 GTX       0.064600
     17 C2S         22.2440     7.2280    30.5880 c3         1 GTX      -0.079400
     18 C3S         23.7450     7.2690    30.3230 c3         1 GTX      -0.069400
     19 C4S         24.5600     7.4570    31.5960 c3         1 GTX      -0.085400
     20 C5S         26.0630     7.4710    31.3520 c3         1 GTX      -0.068400
     21 C6S         26.8690     7.6550    32.6300 c3         1 GTX      -0.089100
     22 N3          21.1220     3.3890    32.4040 ns         1 GTX      -0.455900
     23 CA3         21.2860     2.7380    33.6780 c3         1 GTX      -0.064000
     24 C3          22.6490     3.1170    34.3040 c          1 GTX       0.715000
     25 O31         22.8780     2.6140    35.4150 o          1 GTX      -0.725500
     26 O32         23.3790     3.8790    33.6390 o          1 GTX      -0.725500
     27 HN11        20.2590     0.5820    24.1850 hn         1 GTX       0.493333
     28 HN12        18.8530     0.0100    23.5570 hn         1 GTX       0.493333
     29 HN13        19.3400     1.5320    23.1530 hn         1 GTX       0.493333
     30 HA1         18.0500     0.6790    25.5860 hx         1 GTX       0.084700
     31 HB11        20.2730     1.5750    26.2510 hc         1 GTX       0.051700
     32 HB12        19.9800     3.0340    25.3190 hc         1 GTX       0.051700
     33 HG11        18.1180     3.6660    26.8190 hc         1 GTX       0.083700
     34 HG12        18.1890     2.1240    27.6330 hc         1 GTX       0.083700
     35 HN2         18.3890     3.3150    29.5550 hn         1 GTX       0.330500
     36 HA2         21.0940     4.3490    30.0900 h1         1 GTX       0.092700
     37 HB21        18.4260     5.5170    31.0230 h1         1 GTX       0.082200
     38 HB22        19.9680     5.9460    31.7400 h1         1 GTX       0.082200
     39 HS11        21.7940     6.0560    28.8250 h1         1 GTX       0.072200
     40 HS12        21.5930     7.7830    28.6080 h1         1 GTX       0.072200
     41 HS21        21.9160     8.1680    31.0410 hc         1 GTX       0.051200
     42 HS22        22.0480     6.4440    31.3260 hc         1 GTX       0.051200
     43 HS31        24.0500     6.3370    29.8350 hc         1 GTX       0.032200
     44 HS32        23.9730     8.0730    29.6160 hc         1 GTX       0.032200
     45 HS41        24.2620     8.3930    32.0830 hc         1 GTX       0.054200
     46 HS42        24.3160     6.6560    32.3030 hc         1 GTX       0.054200
     47 HS51        26.3580     6.5370    30.8650 hc         1 GTX       0.028200
     48 HS52        26.3070     8.2710    30.6450 hc         1 GTX       0.028200
     49 HS61        27.9410     7.6630    32.4310 hc         1 GTX       0.030700
     50 HS62        26.6170     8.5970    33.1210 hc         1 GTX       0.030700
     51 HS63        26.6700     6.8510    33.3410 hc         1 GTX       0.030700
     52 HN3         21.9160     3.9540    32.1280 hn         1 GTX       0.344500
     53 HA31        20.4840     3.0210    34.3650 h1         1 GTX       0.038200
     54 HA32        21.2350     1.6500    33.5700 h1         1 GTX       0.038200
@<TRIPOS>BOND
     1     1     2 1   
     2     1    27 1   
     3     1    28 1   
     4     1    29 1   
     5     2     3 1   
     6     2     6 1   
     7     2    30 1   
     8     3     4 1   
     9     3     5 1   
    10     6     7 1   
    11     6    31 1   
    12     6    32 1   
    13     7     8 1   
    14     7    33 1   
    15     7    34 1   
    16     8     9 2   
    17     8    10 1   
    18    10    11 1   
    19    10    35 1   
    20    11    12 1   
    21    11    14 1   
    22    11    36 1   
    23    12    13 2   
    24    12    22 1   
    25    14    15 1   
    26    14    37 1   
    27    14    38 1   
    28    15    16 1   
    29    16    17 1   
    30    16    39 1   
    31    16    40 1   
    32    17    18 1   
    33    17    41 1   
    34    17    42 1   
    35    18    19 1   
    36    18    43 1   
    37    18    44 1   
    38    19    20 1   
    39    19    45 1   
    40    19    46 1   
    41    20    21 1   
    42    20    47 1   
    43    20    48 1   
    44    21    49 1   
    45    21    50 1   
    46    21    51 1   
    47    22    23 1   
    48    22    52 1   
    49    23    24 1   
    50    23    53 1   
    51    23    54 1   
    52    24    25 1   
    53    24    26 1   
@<TRIPOS>SUBSTRUCTURE
     1 GTX         1 TEMP              0 ****  ****    0 ROOT
