@<TRIPOS>MOLECULE
GTY
   59    58     1     0     0
SMALL
No Charge or Current Charge


@<TRIPOS>ATOM
      1 N1          -4.3840     4.4060     0.2400 n8         1 GTY      -0.999200
      2 CA1         -3.1000     3.9450     0.8850 c3         1 GTY       0.012500
      3 C1          -1.9660     5.0430     1.0390 c          1 GTY       0.694000
      4 O11         -1.6580     5.7040     0.0560 o          1 GTY      -0.740000
      5 O12         -1.5230     5.2660     2.1570 o          1 GTY      -0.740000
      6 CB1         -2.5360     2.6880     0.1650 c3         1 GTY      -0.044400
      7 CG1         -3.4600     1.4440     0.2270 c3         1 GTY      -0.148400
      8 CD1         -2.7900     0.2250    -0.4140 c          1 GTY       0.602100
      9 OE1         -2.6810     0.0960    -1.6250 o          1 GTY      -0.605100
     10 N2          -2.3670    -0.7370     0.4750 ns         1 GTY      -0.502900
     11 CA2         -1.6370    -1.9780     0.1120 c3         1 GTY       0.047700
     12 C2          -2.2580    -3.2090     0.8310 c          1 GTY       0.584100
     13 O2          -3.0140    -3.1180     1.7940 o          1 GTY      -0.646100
     14 CB2         -0.1300    -1.8600     0.4560 c3         1 GTY       0.057600
     15 SG2          0.6940    -0.4720    -0.4590 ss         1 GTY      -0.438000
     16 C1S          2.3990    -0.6000     0.2410 c3         1 GTY       0.056600
     17 C2S          3.3140     0.4800    -0.3690 c3         1 GTY      -0.064400
     18 C3S          4.7570     0.4230     0.1780 c3         1 GTY      -0.074400
     19 C4S          5.6780     1.5030    -0.4310 c3         1 GTY      -0.075400
     20 C5S          7.1210     1.4440     0.1160 c3         1 GTY      -0.074400
     21 C6S          8.0420     2.5240    -0.4930 c3         1 GTY      -0.076400
     22 C7S          9.4850     2.4650     0.0540 c3         1 GTY      -0.075400
     23 C8S         10.4050     3.5420    -0.5530 c3         1 GTY      -0.088100
     24 N3          -1.9010    -4.4360     0.3080 ns         1 GTY      -0.459900
     25 CA3         -2.3530    -5.7460     0.8320 c3         1 GTY      -0.053000
     26 C3          -1.9050    -6.9330    -0.0680 c          1 GTY       0.713000
     27 O31         -2.5720    -7.9570    -0.0420 o          1 GTY      -0.735000
     28 O32         -0.9310    -6.7820    -0.7950 o          1 GTY      -0.735000
     29 HN11        -4.7610     5.1970     0.7750 hn         1 GTY       0.379000
     30 HN12        -4.1530     4.8290    -0.6680 hn         1 GTY       0.379000
     31 HA1         -3.3630     3.6360     1.9060 h1         1 GTY       0.029700
     32 HB11        -1.5760     2.4270     0.6290 hc         1 GTY       0.053700
     33 HB12        -2.3170     2.9330    -0.8820 hc         1 GTY       0.053700
     34 HG11        -4.3850     1.6620    -0.3200 hc         1 GTY       0.053200
     35 HG12        -3.6900     1.2360     1.2790 hc         1 GTY       0.053200
     36 HN2         -2.5540    -0.5640     1.4560 hn         1 GTY       0.315500
     37 HA2         -1.7370    -2.1550    -0.9670 h1         1 GTY       0.081700
     38 HB21         0.3830    -2.7960     0.2020 h1         1 GTY       0.069200
     39 HB22        -0.0150    -1.6930     1.5350 h1         1 GTY       0.069200
     40 H1S1         2.8040    -1.5970     0.0220 h1         1 GTY       0.052700
     41 H1S2         2.3510    -0.4740     1.3310 h1         1 GTY       0.052700
     42 H2S1         2.8860     1.4690    -0.1620 hc         1 GTY       0.052200
     43 H2S2         3.3340     0.3580    -1.4590 hc         1 GTY       0.052200
     44 H3S1         5.1800    -0.5690    -0.0260 hc         1 GTY       0.035700
     45 H3S2         4.7330     0.5420     1.2690 hc         1 GTY       0.035700
     46 H4S1         5.2550     2.4940    -0.2260 hc         1 GTY       0.039200
     47 H4S2         5.7010     1.3830    -1.5210 hc         1 GTY       0.039200
     48 H5S1         7.5440     0.4530    -0.0880 hc         1 GTY       0.035200
     49 H5S2         7.0980     1.5640     1.2070 hc         1 GTY       0.035200
     50 H6S1         7.6200     3.5160    -0.2880 hc         1 GTY       0.037700
     51 H6S2         8.0650     2.4040    -1.5830 hc         1 GTY       0.037700
     52 H7S1         9.9120     1.4760    -0.1510 hc         1 GTY       0.034700
     53 H7S2         9.4670     2.5870     1.1440 hc         1 GTY       0.034700
     54 H8S1        11.4160     3.4610    -0.1360 hc         1 GTY       0.028367
     55 H8S2        10.4730     3.4260    -1.6420 hc         1 GTY       0.028367
     56 H8S3        10.0230     4.5470    -0.3350 hc         1 GTY       0.028367
     57 HN3         -1.2760    -4.4380    -0.4920 hn         1 GTY       0.341500
     58 HA31        -1.9350    -5.8950     1.8360 h1         1 GTY       0.033700
     59 HA32        -3.4490    -5.7480     0.8990 h1         1 GTY       0.033700
@<TRIPOS>BOND
     1     1     2 1   
     2     1    29 1   
     3     1    30 1   
     4     2     3 1   
     5     2     6 1   
     6     2    31 1   
     7     3     4 1   
     8     3     5 1   
     9     6     7 1   
    10     6    32 1   
    11     6    33 1   
    12     7     8 1   
    13     7    34 1   
    14     7    35 1   
    15     8     9 2   
    16     8    10 1   
    17    10    11 1   
    18    10    36 1   
    19    11    12 1   
    20    11    14 1   
    21    11    37 1   
    22    12    13 2   
    23    12    24 1   
    24    14    15 1   
    25    14    38 1   
    26    14    39 1   
    27    15    16 1   
    28    16    17 1   
    29    16    40 1   
    30    16    41 1   
    31    17    18 1   
    32    17    42 1   
    33    17    43 1   
    34    18    19 1   
    35    18    44 1   
    36    18    45 1   
    37    19    20 1   
    38    19    46 1   
    39    19    47 1   
    40    20    21 1   
    41    20    48 1   
    42    20    49 1   
    43    21    22 1   
    44    21    50 1   
    45    21    51 1   
    46    22    23 1   
    47    22    52 1   
    48    22    53 1   
    49    23    54 1   
    50    23    55 1   
    51    23    56 1   
    52    24    25 1   
    53    24    57 1   
    54    25    26 1   
    55    25    58 1   
    56    25    59 1   
    57    26    27 1   
    58    26    28 1   
@<TRIPOS>SUBSTRUCTURE
     1 GTY         1 TEMP              0 ****  ****    0 ROOT
