@<TRIPOS>MOLECULE
GTY
   59    58     1     0     0
SMALL
bcc


@<TRIPOS>ATOM
      1 N1          -5.3560     3.5930     1.5220 n8         1 GTY      -0.888800
      2 CA1         -4.4840     3.7840     0.3740 c3         1 GTY       0.012500
      3 C1          -5.0760     4.6320    -0.7810 c          1 GTY       0.904600
      4 O11         -6.3000     4.8700    -0.7550 o          1 GTY      -0.845300
      5 O12         -4.2670     4.9950    -1.6610 o          1 GTY      -0.845300
      6 CB1         -4.0440     2.4280    -0.1800 c3         1 GTY      -0.044400
      7 CG1         -3.3130     1.5770     0.8520 c3         1 GTY      -0.148400
      8 CD1         -2.8950     0.2400     0.2930 c          1 GTY       0.669100
      9 OE1         -3.6510    -0.4740    -0.3520 o          1 GTY      -0.605100
     10 N2          -1.6250    -0.1270     0.5400 ns         1 GTY      -0.569900
     11 CA2         -1.1060    -1.3870     0.0830 c3         1 GTY       0.047700
     12 C2          -1.8350    -2.5610     0.7500 c          1 GTY       0.651100
     13 O2          -2.2340    -2.4930     1.9040 o          1 GTY      -0.646100
     14 CB2          0.3770    -1.4980     0.4210 c3         1 GTY       0.009700
     15 SG2          1.3020    -0.1440    -0.3590 ss         1 GTY      -0.342200
     16 C1S          2.9780    -0.5660     0.1980 c3         1 GTY       0.008700
     17 C2S          3.9470     0.5350    -0.2070 c3         1 GTY      -0.064400
     18 C3S          5.3820     0.2130     0.1950 c3         1 GTY      -0.074400
     19 C4S          6.3550     1.3300    -0.1630 c3         1 GTY      -0.075400
     20 C5S          7.7960     1.0210     0.2220 c3         1 GTY      -0.074400
     21 C6S          8.7610     2.1510    -0.1150 c3         1 GTY      -0.076400
     22 C7S         10.2040     1.8490     0.2690 c3         1 GTY      -0.075400
     23 C8S         11.1550     2.9900    -0.0610 c3         1 GTY      -0.088100
     24 N3          -1.9260    -3.6500    -0.0100 ns         1 GTY      -0.526900
     25 CA3         -2.4690    -4.9080     0.4320 c3         1 GTY      -0.053000
     26 C3          -2.3840    -5.9660    -0.6870 c          1 GTY       0.923600
     27 O31         -2.8030    -7.0950    -0.3820 o          1 GTY      -0.840300
     28 O32         -1.9130    -5.5970    -1.7800 o          1 GTY      -0.840300
     29 HN11        -5.5370     4.4950     1.9470 hn         1 GTY       0.323800
     30 HN12        -6.2620     3.2910     1.1790 hn         1 GTY       0.323800
     31 HA1         -3.5840     4.3020     0.7300 h1         1 GTY       0.029700
     32 HB11        -3.3960     2.5950    -1.0420 hc         1 GTY       0.053700
     33 HB12        -4.9200     1.8850    -0.5470 hc         1 GTY       0.053700
     34 HG11        -3.9730     1.3990     1.7060 hc         1 GTY       0.053200
     35 HG12        -2.4490     2.1220     1.2390 hc         1 GTY       0.053200
     36 HN2         -1.0380     0.4650     1.1050 hn         1 GTY       0.315500
     37 HA2         -1.2240    -1.4600    -1.0030 h1         1 GTY       0.081700
     38 HB21         0.7590    -2.4530     0.0590 h1         1 GTY       0.069200
     39 HB22         0.5230    -1.4620     1.5040 h1         1 GTY       0.069200
     40 H1S1         3.2740    -1.5210    -0.2420 h1         1 GTY       0.052700
     41 H1S2         2.9700    -0.6850     1.2830 h1         1 GTY       0.052700
     42 H2S1         3.6390     1.4760     0.2580 hc         1 GTY       0.052200
     43 H2S2         3.8980     0.6900    -1.2890 hc         1 GTY       0.052200
     44 H3S1         5.6980    -0.7160    -0.2910 hc         1 GTY       0.035700
     45 H3S2         5.4270     0.0250     1.2730 hc         1 GTY       0.035700
     46 H4S1         6.0370     2.2550     0.3300 hc         1 GTY       0.039200
     47 H4S2         6.3010     1.5270    -1.2400 hc         1 GTY       0.039200
     48 H5S1         8.1200     0.1030    -0.2830 hc         1 GTY       0.035200
     49 H5S2         7.8480     0.8090     1.2960 hc         1 GTY       0.035200
     50 H6S1         8.4350     3.0670     0.3910 hc         1 GTY       0.037700
     51 H6S2         8.7090     2.3650    -1.1880 hc         1 GTY       0.037700
     52 H7S1        10.5320     0.9380    -0.2420 hc         1 GTY       0.034700
     53 H7S2        10.2550     1.6290     1.3400 hc         1 GTY       0.034700
     54 H8S1        12.1790     2.7610     0.2380 hc         1 GTY       0.028367
     55 H8S2        11.1630     3.2000    -1.1330 hc         1 GTY       0.028367
     56 H8S3        10.8590     3.9090     0.4500 hc         1 GTY       0.028367
     57 HN3         -1.6090    -3.6420    -0.9700 hn         1 GTY       0.341500
     58 HA31        -1.9310    -5.2740     1.3120 h1         1 GTY       0.033700
     59 HA32        -3.5150    -4.7960     0.7340 h1         1 GTY       0.033700
@<TRIPOS>BOND
     1     1     2 1   
     2     1    29 1   
     3     1    30 1   
     4     2     3 1   
     5     2     6 1   
     6     2    31 1   
     7     3     4 1   
     8     3     5 1   
     9     6     7 1   
    10     6    32 1   
    11     6    33 1   
    12     7     8 1   
    13     7    34 1   
    14     7    35 1   
    15     8     9 2   
    16     8    10 1   
    17    10    11 1   
    18    10    36 1   
    19    11    12 1   
    20    11    14 1   
    21    11    37 1   
    22    12    13 2   
    23    12    24 1   
    24    14    15 1   
    25    14    38 1   
    26    14    39 1   
    27    15    16 1   
    28    16    17 1   
    29    16    40 1   
    30    16    41 1   
    31    17    18 1   
    32    17    42 1   
    33    17    43 1   
    34    18    19 1   
    35    18    44 1   
    36    18    45 1   
    37    19    20 1   
    38    19    46 1   
    39    19    47 1   
    40    20    21 1   
    41    20    48 1   
    42    20    49 1   
    43    21    22 1   
    44    21    50 1   
    45    21    51 1   
    46    22    23 1   
    47    22    52 1   
    48    22    53 1   
    49    23    54 1   
    50    23    55 1   
    51    23    56 1   
    52    24    25 1   
    53    24    57 1   
    54    25    26 1   
    55    25    58 1   
    56    25    59 1   
    57    26    27 1   
    58    26    28 1   
@<TRIPOS>SUBSTRUCTURE
     1 GTY         1 TEMP              0 ****  ****    0 ROOT
