@<TRIPOS>MOLECULE
GTZ
   24    25     1     0     0
SMALL
No Charge or Current Charge


@<TRIPOS>ATOM
      1 C1          -0.3430     1.2310    -0.1500 cc         1 GTZ       0.353800
      2 C2          -1.7080     0.5580    -0.2110 c6         1 GTZ       0.120000
      3 C3          -1.6340    -0.8270     0.5050 c6         1 GTZ       0.133300
      4 C4          -0.3710    -1.6340     0.0590 c6         1 GTZ       0.160300
      5 C5           0.9470    -0.8740     0.4400 c6         1 GTZ       0.101300
      6 C6           2.2080    -1.5890    -0.1430 c3         1 GTZ       0.167600
      7 N1          -0.0440     2.4990    -0.3570 nd         1 GTZ      -0.380000
      8 O2          -2.7730     1.3550     0.3700 oh         1 GTZ      -0.706000
      9 O3          -2.8360    -1.5750     0.2430 oh         1 GTZ      -0.663000
     10 O4          -0.4430    -1.9130    -1.3540 oh         1 GTZ      -0.717000
     11 N5           0.8350     0.5730     0.1000 na         1 GTZ      -0.067700
     12 O6           3.4240    -1.2170     0.5310 oh         1 GTZ      -0.649000
     13 NA           1.8650     1.4560     0.0730 nc         1 GTZ      -0.175800
     14 NB           1.3170     2.6060    -0.2130 nd         1 GTZ      -0.052000
     15 H2          -1.9290     0.3740    -1.2740 h1         1 GTZ       0.074700
     16 H3          -1.5440    -0.6440     1.5880 h1         1 GTZ       0.064700
     17 H4          -0.3700    -2.5850     0.6160 h1         1 GTZ       0.066700
     18 H5           1.0370    -0.9310     1.5340 h1         1 GTZ       0.093700
     19 H61          2.0600    -2.6740    -0.0490 h1         1 GTZ       0.043700
     20 H62          2.2760    -1.3620    -1.2160 h1         1 GTZ       0.043700
     21 HO2         -2.6950     2.2640    -0.0110 ho         1 GTZ       0.531000
     22 HO3         -3.5750    -0.9410     0.3970 ho         1 GTZ       0.472000
     23 HO4         -1.3510    -2.2750    -1.5020 ho         1 GTZ       0.529000
     24 HO6          4.1620    -1.6780     0.0720 ho         1 GTZ       0.455000
@<TRIPOS>BOND
     1     1     2 1   
     2     1     7 2   
     3     1    11 1   
     4     2     3 1   
     5     2     8 1   
     6     2    15 1   
     7     3     4 1   
     8     3     9 1   
     9     3    16 1   
    10     4     5 1   
    11     4    10 1   
    12     4    17 1   
    13     5     6 1   
    14     5    11 1   
    15     5    18 1   
    16     6    12 1   
    17     6    19 1   
    18     6    20 1   
    19     7    14 1   
    20     8    21 1   
    21     9    22 1   
    22    10    23 1   
    23    11    13 1   
    24    12    24 1   
    25    13    14 2   
@<TRIPOS>SUBSTRUCTURE
     1 GTZ         1 TEMP              0 ****  ****    0 ROOT
