@<TRIPOS>MOLECULE
GTZ
   24    25     1     0     0
SMALL
abcg2


@<TRIPOS>ATOM
      1 C1          -0.2910     1.1940    -0.1550 cc         1 GTZ       0.353800
      2 C2          -1.6500     0.5720    -0.1950 c6         1 GTZ       0.120000
      3 C3          -1.5930    -0.7690     0.5370 c6         1 GTZ       0.133300
      4 C4          -0.3910    -1.5790     0.0510 c6         1 GTZ       0.160300
      5 C5           0.9150    -0.9050     0.4590 c6         1 GTZ       0.101300
      6 C6           2.1270    -1.5820    -0.1610 c3         1 GTZ       0.167600
      7 N1           0.0410     2.4420    -0.3650 nd         1 GTZ      -0.380000
      8 O2          -2.6100     1.3820     0.4250 oh         1 GTZ      -0.706000
      9 O3          -2.7440    -1.5320     0.3030 oh         1 GTZ      -0.663000
     10 O4          -0.3930    -1.7260    -1.3450 oh         1 GTZ      -0.717000
     11 N5           0.8240     0.5100     0.1070 na         1 GTZ      -0.067700
     12 O6           3.2710    -1.2140     0.5660 oh         1 GTZ      -0.649000
     13 NA           1.8470     1.3490     0.0650 nc         1 GTZ      -0.175800
     14 NB           1.3650     2.4950    -0.2200 nd         1 GTZ      -0.052000
     15 H2          -1.9040     0.3860    -1.2450 h1         1 GTZ       0.074700
     16 H3          -1.4560    -0.5690     1.6120 h1         1 GTZ       0.064700
     17 H4          -0.4070    -2.5520     0.5600 h1         1 GTZ       0.066700
     18 H5           0.9930    -0.9720     1.5480 h1         1 GTZ       0.093700
     19 H61          1.9530    -2.6650    -0.1120 h1         1 GTZ       0.043700
     20 H62          2.2030    -1.3130    -1.2190 h1         1 GTZ       0.043700
     21 HO2         -2.9290     2.0310    -0.2100 ho         1 GTZ       0.531000
     22 HO3         -3.5170    -1.0080     0.5400 ho         1 GTZ       0.472000
     23 HO4         -1.1790    -2.2200    -1.6030 ho         1 GTZ       0.529000
     24 HO6          4.0410    -1.5600     0.1060 ho         1 GTZ       0.455000
@<TRIPOS>BOND
     1     1     2 1   
     2     1     7 2   
     3     1    11 1   
     4     2     3 1   
     5     2     8 1   
     6     2    15 1   
     7     3     4 1   
     8     3     9 1   
     9     3    16 1   
    10     4     5 1   
    11     4    10 1   
    12     4    17 1   
    13     5     6 1   
    14     5    11 1   
    15     5    18 1   
    16     6    12 1   
    17     6    19 1   
    18     6    20 1   
    19     7    14 1   
    20     8    21 1   
    21     9    22 1   
    22    10    23 1   
    23    11    13 1   
    24    12    24 1   
    25    13    14 2   
@<TRIPOS>SUBSTRUCTURE
     1 GTZ         1 TEMP              0 ****  ****    0 ROOT
