@<TRIPOS>MOLECULE
GU0
   33    33     1     0     0
SMALL
abcg2


@<TRIPOS>ATOM
      1 O1          52.1990    -6.3370    31.8520 oh         1 GU0      -0.709000
      2 C1          52.0620    -6.2490    33.2180 c6         1 GU0       0.388300
      3 C2          52.0900    -4.8140    33.7610 c6         1 GU0       0.139300
      4 O2          53.3740    -4.2500    33.5370 os         1 GU0      -0.574700
      5 S2          53.5730    -3.1740    32.3120 s6         1 GU0       1.513300
      6 O23         52.7170    -2.0300    32.6100 o          1 GU0      -0.715533
      7 O24         53.1500    -3.9100    31.0990 o          1 GU0      -0.715533
      8 O22         55.0050    -2.9250    32.3890 o          1 GU0      -0.715533
      9 C3          51.8220    -4.8000    35.2660 c6         1 GU0       0.241300
     10 O3          51.6260    -3.4630    35.6890 os         1 GU0      -0.580700
     11 S3          52.6570    -2.7320    36.7570 s6         1 GU0       1.514300
     12 O26         53.8880    -2.4650    36.0150 o          1 GU0      -0.720200
     13 O27         52.8330    -3.6700    37.8670 o          1 GU0      -0.720200
     14 O25         51.8740    -1.5420    37.0790 o          1 GU0      -0.720200
     15 O5          50.8210    -6.8280    33.5310 os         1 GU0      -0.456000
     16 C5          50.6320    -6.9780    34.9190 c6         1 GU0       0.146300
     17 C6          49.3970    -7.8210    35.1500 c3         1 GU0       0.219600
     18 O6          48.2550    -7.0590    34.7980 os         1 GU0      -0.581700
     19 S6          46.8550    -7.8610    34.4800 s6         1 GU0       1.510300
     20 O29         45.9540    -6.7330    34.2640 o          1 GU0      -0.725867
     21 O30         46.5770    -8.6560    35.6780 o          1 GU0      -0.725867
     22 O28         47.1300    -8.6650    33.2870 o          1 GU0      -0.725867
     23 C4          50.5560    -5.5940    35.5790 c6         1 GU0       0.129300
     24 O4          50.4240    -5.7070    36.9710 oh         1 GU0      -0.708000
     25 HO1         52.4820    -5.4800    31.4740 ho         1 GU0       0.519000
     26 H1          52.8610    -6.8280    33.7210 h2         1 GU0       0.010700
     27 H2          51.3000    -4.2360    33.2630 h1         1 GU0       0.074700
     28 H3          52.6690    -5.2710    35.7840 h1         1 GU0       0.050700
     29 H5          51.4770    -7.5310    35.3620 h1         1 GU0       0.013700
     30 H61         49.4770    -8.7330    34.5480 h1         1 GU0       0.025700
     31 H62         49.3550    -8.1250    36.2000 h1         1 GU0       0.025700
     32 H4          49.7100    -5.0490    35.1390 h1         1 GU0       0.079700
     33 HO4         49.4920    -5.8090    37.1850 ho         1 GU0       0.493000
@<TRIPOS>BOND
     1     1     2 1   
     2     1    25 1   
     3     2     3 1   
     4     2    15 1   
     5     2    26 1   
     6     3     4 1   
     7     3     9 1   
     8     3    27 1   
     9     4     5 1   
    10     5     6 1   
    11     5     7 1   
    12     5     8 1   
    13     9    10 1   
    14     9    23 1   
    15     9    28 1   
    16    10    11 1   
    17    11    12 1   
    18    11    13 1   
    19    11    14 1   
    20    15    16 1   
    21    16    17 1   
    22    16    23 1   
    23    16    29 1   
    24    17    18 1   
    25    17    30 1   
    26    17    31 1   
    27    18    19 1   
    28    19    20 1   
    29    19    21 1   
    30    19    22 1   
    31    23    24 1   
    32    23    32 1   
    33    24    33 1   
@<TRIPOS>SUBSTRUCTURE
     1 GU0         1 TEMP              0 ****  ****    0 ROOT
