@<TRIPOS>MOLECULE
GU0
   33    33     1     0     0
SMALL
No Charge or Current Charge


@<TRIPOS>ATOM
      1 O1          52.4680    -6.3620    31.8310 oh         1 GU0      -0.709000
      2 C1          52.2300    -6.2320    33.2300 c6         1 GU0       0.388300
      3 C2          52.1630    -4.7370    33.7160 c6         1 GU0       0.139300
      4 O2          53.4200    -4.0540    33.4390 os         1 GU0      -0.574700
      5 S2          53.5160    -3.0720    32.1280 s6         1 GU0       1.513300
      6 O23         52.5100    -2.0310    32.3710 o          1 GU0      -0.715533
      7 O24         53.1840    -3.9830    31.0240 o          1 GU0      -0.715533
      8 O22         54.9060    -2.6000    32.1310 o          1 GU0      -0.715533
      9 C3          51.8660    -4.7610    35.2590 c6         1 GU0       0.241300
     10 O3          51.7160    -3.4120    35.7740 os         1 GU0      -0.580700
     11 S3          52.6980    -2.8950    36.9900 s6         1 GU0       1.514300
     12 O26         53.9440    -2.5090    36.3120 o          1 GU0      -0.720200
     13 O27         52.8450    -4.0460    37.8920 o          1 GU0      -0.720200
     14 O25         51.9620    -1.7620    37.5720 o          1 GU0      -0.720200
     15 O5          50.9870    -6.8940    33.4760 os         1 GU0      -0.456000
     16 C5          50.6500    -6.9890    34.8770 c6         1 GU0       0.146300
     17 C6          49.3470    -7.8450    35.0100 c3         1 GU0       0.219600
     18 O6          48.2030    -7.1010    34.5490 os         1 GU0      -0.581700
     19 S6          46.7530    -7.8570    34.6810 s6         1 GU0       1.510300
     20 O29         45.8080    -6.9130    34.0660 o          1 GU0      -0.725867
     21 O30         46.5760    -8.0330    36.1290 o          1 GU0      -0.725867
     22 O28         46.9260    -9.1130    33.9380 o          1 GU0      -0.725867
     23 C4          50.5280    -5.5600    35.4910 c6         1 GU0       0.129300
     24 O4          50.1600    -5.6250    36.8910 oh         1 GU0      -0.708000
     25 HO1         52.7750    -5.4610    31.5240 ho         1 GU0       0.519000
     26 H1          53.0310    -6.7530    33.7760 h2         1 GU0       0.010700
     27 H2          51.3310    -4.2250    33.2110 h1         1 GU0       0.074700
     28 H3          52.6940    -5.2830    35.7620 h1         1 GU0       0.050700
     29 H5          51.4600    -7.5340    35.3840 h1         1 GU0       0.013700
     30 H61         49.4800    -8.7690    34.4320 h1         1 GU0       0.025700
     31 H62         49.2300    -8.1250    36.0650 h1         1 GU0       0.025700
     32 H4          49.7410    -5.0270    34.9340 h1         1 GU0       0.079700
     33 HO4         49.1850    -5.7630    36.9210 ho         1 GU0       0.493000
@<TRIPOS>BOND
     1     1     2 1   
     2     1    25 1   
     3     2     3 1   
     4     2    15 1   
     5     2    26 1   
     6     3     4 1   
     7     3     9 1   
     8     3    27 1   
     9     4     5 1   
    10     5     6 1   
    11     5     7 1   
    12     5     8 1   
    13     9    10 1   
    14     9    23 1   
    15     9    28 1   
    16    10    11 1   
    17    11    12 1   
    18    11    13 1   
    19    11    14 1   
    20    15    16 1   
    21    16    17 1   
    22    16    23 1   
    23    16    29 1   
    24    17    18 1   
    25    17    30 1   
    26    17    31 1   
    27    18    19 1   
    28    19    20 1   
    29    19    21 1   
    30    19    22 1   
    31    23    24 1   
    32    23    32 1   
    33    24    33 1   
@<TRIPOS>SUBSTRUCTURE
     1 GU0         1 TEMP              0 ****  ****    0 ROOT
