@<TRIPOS>MOLECULE
GU1
   28    28     1     0     0
SMALL
abcg2


@<TRIPOS>ATOM
      1 O1          56.9500    -2.2760   -12.6080 oh         1 GU1      -0.717000
      2 C1          57.0950    -2.3810   -11.2400 c6         1 GU1       0.367300
      3 C2          57.8630    -1.1620   -10.7240 c6         1 GU1       0.111300
      4 O2          59.1790    -1.1530   -11.2140 os         1 GU1      -0.451000
      5 C7          59.4130    -0.3030   -12.3100 c3         1 GU1       0.159900
      6 C3          57.9270    -1.2200    -9.1950 c6         1 GU1       0.157300
      7 O3          58.6620    -0.1560    -8.6410 os         1 GU1      -0.438000
      8 C8          58.0920     1.1280    -8.7150 c3         1 GU1       0.151900
      9 O5          55.8160    -2.4310   -10.6620 os         1 GU1      -0.443000
     10 C5          55.8570    -2.6020    -9.2680 c6         1 GU1      -0.011700
     11 C6          54.4320    -2.8410    -8.7250 c          1 GU1       0.732000
     12 O6B         54.3160    -2.6880    -7.4790 o          1 GU1      -0.700500
     13 O6A         53.5500    -3.1810    -9.5150 o          1 GU1      -0.700500
     14 C4          56.5310    -1.3870    -8.6070 c6         1 GU1       0.141300
     15 O4          56.6300    -1.5490    -7.2210 oh         1 GU1      -0.770000
     16 HO1         56.7160    -3.1370   -12.9700 ho         1 GU1       0.510000
     17 H1          57.6560    -3.2920   -10.9610 h2         1 GU1       0.012700
     18 H2          57.3160    -0.2620   -11.0440 h1         1 GU1       0.056700
     19 H71         60.4870    -0.3010   -12.4970 h1         1 GU1       0.020700
     20 H72         58.9060    -0.6310   -13.2210 h1         1 GU1       0.020700
     21 H73         59.1040     0.7280   -12.1000 h1         1 GU1       0.020700
     22 H3          58.5010    -2.1170    -8.9220 h1         1 GU1       0.080700
     23 H81         58.8470     1.8310    -8.3640 h1         1 GU1       0.019367
     24 H82         57.8140     1.4210    -9.7330 h1         1 GU1       0.019367
     25 H83         57.2080     1.2390    -8.0790 h1         1 GU1       0.019367
     26 H5          56.4550    -3.4960    -9.0090 h1         1 GU1       0.026700
     27 H4          55.9210    -0.5030    -8.8670 h1         1 GU1       0.030700
     28 HO4         55.7610    -1.9560    -6.9880 ho         1 GU1       0.572000
@<TRIPOS>BOND
     1     1     2 1   
     2     1    16 1   
     3     2     3 1   
     4     2     9 1   
     5     2    17 1   
     6     3     4 1   
     7     3     6 1   
     8     3    18 1   
     9     4     5 1   
    10     5    19 1   
    11     5    20 1   
    12     5    21 1   
    13     6     7 1   
    14     6    14 1   
    15     6    22 1   
    16     7     8 1   
    17     8    23 1   
    18     8    24 1   
    19     8    25 1   
    20     9    10 1   
    21    10    11 1   
    22    10    14 1   
    23    10    26 1   
    24    11    12 1   
    25    11    13 1   
    26    14    15 1   
    27    14    27 1   
    28    15    28 1   
@<TRIPOS>SUBSTRUCTURE
     1 GU1         1 TEMP              0 ****  ****    0 ROOT
