@<TRIPOS>MOLECULE
GU1
   28    28     1     0     0
SMALL
No Charge or Current Charge


@<TRIPOS>ATOM
      1 O1          56.9430    -2.1940   -12.6540 oh         1 GU1      -0.717000
      2 C1          57.1540    -2.3170   -11.2620 c6         1 GU1       0.367300
      3 C2          57.9170    -1.0910   -10.6320 c6         1 GU1       0.111300
      4 O2          59.3030    -0.9690   -11.0750 os         1 GU1      -0.451000
      5 C7          59.5540    -0.6220   -12.4490 c3         1 GU1       0.159900
      6 C3          57.8740    -1.2330    -9.0780 c6         1 GU1       0.157300
      7 O3          58.5230    -0.1330    -8.3730 os         1 GU1      -0.438000
      8 C8          58.0470     1.2100    -8.6000 c3         1 GU1       0.151900
      9 O5          55.8280    -2.4150   -10.7350 os         1 GU1      -0.443000
     10 C5          55.7630    -2.6480    -9.2940 c6         1 GU1      -0.011700
     11 C6          54.3080    -2.8990    -8.7640 c          1 GU1       0.732000
     12 O6B         54.1510    -3.9450    -8.1450 o          1 GU1      -0.700500
     13 O6A         53.3890    -2.4740    -9.4560 o          1 GU1      -0.700500
     14 C4          56.4110    -1.4390    -8.5670 c6         1 GU1       0.141300
     15 O4          56.4000    -1.6010    -7.1370 oh         1 GU1      -0.770000
     16 HO1         55.9860    -2.3970   -12.7410 ho         1 GU1       0.510000
     17 H1          57.7000    -3.2490   -11.0500 h2         1 GU1       0.012700
     18 H2          57.3790    -0.1760   -10.9180 h1         1 GU1       0.056700
     19 H71         60.6110    -0.3620   -12.5850 h1         1 GU1       0.020700
     20 H72         59.3330    -1.4620   -13.1190 h1         1 GU1       0.020700
     21 H73         58.9500     0.2430   -12.7520 h1         1 GU1       0.020700
     22 H3          58.4340    -2.1460    -8.8280 h1         1 GU1       0.080700
     23 H81         58.6100     1.9180    -7.9800 h1         1 GU1       0.019367
     24 H82         58.1790     1.5040    -9.6480 h1         1 GU1       0.019367
     25 H83         56.9850     1.3060    -8.3400 h1         1 GU1       0.019367
     26 H5          56.3490    -3.5520    -9.0700 h1         1 GU1       0.026700
     27 H4          55.8230    -0.5480    -8.8340 h1         1 GU1       0.030700
     28 HO4         57.0970    -0.9880    -6.7930 ho         1 GU1       0.572000
@<TRIPOS>BOND
     1     1     2 1   
     2     1    16 1   
     3     2     3 1   
     4     2     9 1   
     5     2    17 1   
     6     3     4 1   
     7     3     6 1   
     8     3    18 1   
     9     4     5 1   
    10     5    19 1   
    11     5    20 1   
    12     5    21 1   
    13     6     7 1   
    14     6    14 1   
    15     6    22 1   
    16     7     8 1   
    17     8    23 1   
    18     8    24 1   
    19     8    25 1   
    20     9    10 1   
    21    10    11 1   
    22    10    14 1   
    23    10    26 1   
    24    11    12 1   
    25    11    13 1   
    26    14    15 1   
    27    14    27 1   
    28    15    28 1   
@<TRIPOS>SUBSTRUCTURE
     1 GU1         1 TEMP              0 ****  ****    0 ROOT
