@<TRIPOS>MOLECULE
GU3
   36    36     1     0     0
SMALL
No Charge or Current Charge


@<TRIPOS>ATOM
      1 O4          58.4120    -2.6830   -21.3990 oh         1 GU3      -0.701000
      2 O50         53.5250    -3.6210   -24.3570 o          1 GU3      -0.718200
      3 S6          53.9600    -3.8170   -22.9670 s6         1 GU3       1.506300
      4 O51         52.9340    -3.5050   -21.9610 o          1 GU3      -0.718200
      5 O52         54.6730    -5.0810   -22.7330 o          1 GU3      -0.718200
      6 O6          55.1000    -2.6610   -22.7340 os         1 GU3      -0.582700
      7 C6          56.2590    -2.7400   -23.5870 c3         1 GU3       0.228600
      8 C5          57.2420    -1.5620   -23.2900 c6         1 GU3       0.143300
      9 O5          56.5860    -0.3240   -23.6720 os         1 GU3      -0.453000
     10 C1          57.3930     0.8660   -23.5220 c6         1 GU3       0.345300
     11 O1          58.5360     0.7690   -24.4030 os         1 GU3      -0.463000
     12 C8          58.2570     0.7960   -25.8120 c3         1 GU3       0.154900
     13 C2          57.8150     1.0570   -22.0180 c6         1 GU3       0.201300
     14 O2          58.6320     2.2500   -21.8690 os         1 GU3      -0.586700
     15 S2          57.8820     3.6590   -21.4850 s6         1 GU3       1.500300
     16 O54         57.3250     3.4110   -20.1490 o          1 GU3      -0.712867
     17 O55         56.8680     3.8240   -22.5340 o          1 GU3      -0.712867
     18 O53         58.9620     4.6540   -21.5180 o          1 GU3      -0.712867
     19 C3          58.5740    -0.2370   -21.5510 c6         1 GU3       0.136300
     20 O3          58.9520    -0.2460   -20.1440 os         1 GU3      -0.433000
     21 C7          59.9830     0.6590   -19.7080 c3         1 GU3       0.165900
     22 C4          57.6920    -1.4960   -21.8020 c6         1 GU3       0.125300
     23 HO4         58.8800    -2.4320   -20.5690 ho         1 GU3       0.471000
     24 H61         56.7970    -3.6840   -23.4300 h1         1 GU3       0.031200
     25 H62         55.9760    -2.6870   -24.6460 h1         1 GU3       0.031200
     26 H5          58.1260    -1.7000   -23.9300 h1         1 GU3       0.010700
     27 H1          56.7890     1.7360   -23.8210 h2         1 GU3       0.099700
     28 H8          57.7360     1.7230   -26.0860 h1         1 GU3       0.019033
     29 H8A         59.1920     0.7460   -26.3850 h1         1 GU3       0.019033
     30 H8B         57.6320    -0.0560   -26.1050 h1         1 GU3       0.019033
     31 H2          56.9050     1.1510   -21.4070 h1         1 GU3       0.085700
     32 H3          59.4920    -0.3370   -22.1490 h1         1 GU3       0.040700
     33 H7          59.6140     1.6890   -19.6580 h1         1 GU3       0.016033
     34 H7A         60.3220     0.3820   -18.7010 h1         1 GU3       0.016033
     35 H7B         60.8480     0.6210   -20.3810 h1         1 GU3       0.016033
     36 H4          56.7810    -1.3860   -21.1920 h1         1 GU3       0.129700
@<TRIPOS>BOND
     1     1    22 1   
     2     1    23 1   
     3     2     3 1   
     4     3     4 1   
     5     3     5 1   
     6     3     6 1   
     7     6     7 1   
     8     7     8 1   
     9     7    24 1   
    10     7    25 1   
    11     8     9 1   
    12     8    22 1   
    13     8    26 1   
    14     9    10 1   
    15    10    11 1   
    16    10    13 1   
    17    10    27 1   
    18    11    12 1   
    19    12    28 1   
    20    12    29 1   
    21    12    30 1   
    22    13    14 1   
    23    13    19 1   
    24    13    31 1   
    25    14    15 1   
    26    15    16 1   
    27    15    17 1   
    28    15    18 1   
    29    19    20 1   
    30    19    22 1   
    31    19    32 1   
    32    20    21 1   
    33    21    33 1   
    34    21    34 1   
    35    21    35 1   
    36    22    36 1   
@<TRIPOS>SUBSTRUCTURE
     1 GU3         1 TEMP              0 ****  ****    0 ROOT
