@<TRIPOS>MOLECULE
GU3
   36    36     1     0     0
SMALL
abcg2


@<TRIPOS>ATOM
      1 O4          58.4340    -2.4900   -21.2720 oh         1 GU3      -0.701000
      2 O50         53.4880    -3.1610   -24.1610 o          1 GU3      -0.718200
      3 S6          54.0560    -3.6710   -22.9120 s6         1 GU3       1.506300
      4 O51         53.2360    -3.4390   -21.7260 o          1 GU3      -0.718200
      5 O52         54.6090    -5.0240   -23.0240 o          1 GU3      -0.718200
      6 O6          55.3380    -2.6980   -22.5830 os         1 GU3      -0.582700
      7 C6          56.4500    -2.7370   -23.4600 c3         1 GU3       0.228600
      8 C5          57.3140    -1.5240   -23.1970 c6         1 GU3       0.143300
      9 O5          56.6030    -0.3810   -23.6430 os         1 GU3      -0.453000
     10 C1          57.3060     0.8280   -23.5530 c6         1 GU3       0.345300
     11 O1          58.4690     0.8350   -24.3080 os         1 GU3      -0.463000
     12 C8          58.2570     0.8140   -25.7040 c3         1 GU3       0.154900
     13 C2          57.6740     1.0970   -22.0950 c6         1 GU3       0.201300
     14 O2          58.4630     2.2610   -21.9650 os         1 GU3      -0.586700
     15 S2          57.7220     3.6910   -21.6130 s6         1 GU3       1.500300
     16 O54         56.9330     3.4420   -20.4050 o          1 GU3      -0.712867
     17 O55         56.9100     4.0120   -22.7910 o          1 GU3      -0.712867
     18 O53         58.8910     4.5440   -21.4210 o          1 GU3      -0.712867
     19 C3          58.4590    -0.0670   -21.4970 c6         1 GU3       0.136300
     20 O3          58.6180     0.1410   -20.1150 os         1 GU3      -0.433000
     21 C7          59.9410     0.3300   -19.6820 c3         1 GU3       0.165900
     22 C4          57.7050    -1.3750   -21.7210 c6         1 GU3       0.125300
     23 HO4         59.2510    -2.5520   -21.7810 ho         1 GU3       0.471000
     24 H61         57.0430    -3.6410   -23.3000 h1         1 GU3       0.031200
     25 H62         56.1370    -2.7270   -24.5100 h1         1 GU3       0.031200
     26 H5          58.2310    -1.6600   -23.7900 h1         1 GU3       0.010700
     27 H1          56.6050     1.5900   -23.9150 h2         1 GU3       0.099700
     28 H8          57.5620     1.6010   -26.0160 h1         1 GU3       0.019033
     29 H8A         59.2180     0.9900   -26.1830 h1         1 GU3       0.019033
     30 H8B         57.8660    -0.1460   -26.0540 h1         1 GU3       0.019033
     31 H2          56.7340     1.1890   -21.5370 h1         1 GU3       0.085700
     32 H3          59.4370    -0.1350   -21.9980 h1         1 GU3       0.040700
     33 H7          60.4070     1.2140   -20.1280 h1         1 GU3       0.016033
     34 H7A         59.9130     0.4700   -18.6010 h1         1 GU3       0.016033
     35 H7B         60.5770    -0.5360   -19.8960 h1         1 GU3       0.016033
     36 H4          56.7950    -1.3450   -21.1160 h1         1 GU3       0.129700
@<TRIPOS>BOND
     1     1    22 1   
     2     1    23 1   
     3     2     3 1   
     4     3     4 1   
     5     3     5 1   
     6     3     6 1   
     7     6     7 1   
     8     7     8 1   
     9     7    24 1   
    10     7    25 1   
    11     8     9 1   
    12     8    22 1   
    13     8    26 1   
    14     9    10 1   
    15    10    11 1   
    16    10    13 1   
    17    10    27 1   
    18    11    12 1   
    19    12    28 1   
    20    12    29 1   
    21    12    30 1   
    22    13    14 1   
    23    13    19 1   
    24    13    31 1   
    25    14    15 1   
    26    15    16 1   
    27    15    17 1   
    28    15    18 1   
    29    19    20 1   
    30    19    22 1   
    31    19    32 1   
    32    20    21 1   
    33    21    33 1   
    34    21    34 1   
    35    21    35 1   
    36    22    36 1   
@<TRIPOS>SUBSTRUCTURE
     1 GU3         1 TEMP              0 ****  ****    0 ROOT
